(PID.TID 0000.0001) 
(PID.TID 0000.0001) // ======================================================
(PID.TID 0000.0001) //                      MITgcm UV
(PID.TID 0000.0001) //                      =========
(PID.TID 0000.0001) // ======================================================
(PID.TID 0000.0001) // execution environment starting up...
(PID.TID 0000.0001) 
(PID.TID 0000.0001) // MITgcmUV version:  checkpoint67c
(PID.TID 0000.0001) // Build user:        dmenemen
(PID.TID 0000.0001) // Build host:        r15i6n12
(PID.TID 0000.0001) // Build date:        Fri Jul 27 03:41:11 PDT 2018
(PID.TID 0000.0001) 
(PID.TID 0000.0001) // =======================================================
(PID.TID 0000.0001) // Execution Environment parameter file "eedata"
(PID.TID 0000.0001) // =======================================================
(PID.TID 0000.0001) ># Example "eedata" file
(PID.TID 0000.0001) ># Lines beginning "#" are comments
(PID.TID 0000.0001) ># nTx - No. threads per process in X
(PID.TID 0000.0001) ># nTy - No. threads per process in Y
(PID.TID 0000.0001) > &EEPARMS
(PID.TID 0000.0001) > nTx=1,
(PID.TID 0000.0001) > nTy=1,
(PID.TID 0000.0001) ># debugMode=.TRUE.,
(PID.TID 0000.0001) > /
(PID.TID 0000.0001) ># Note: Some systems use & as the
(PID.TID 0000.0001) ># namelist terminator. Other systems
(PID.TID 0000.0001) ># use a / character (as shown here).
(PID.TID 0000.0001) 
(PID.TID 0000.0001) // =======================================================
(PID.TID 0000.0001) // Computational Grid Specification ( see files "SIZE.h" )
(PID.TID 0000.0001) //                                  ( and "eedata"       )
(PID.TID 0000.0001) // =======================================================
(PID.TID 0000.0001)      nPx =   24 ; /* No. processes in X */
(PID.TID 0000.0001)      nPy =    6 ; /* No. processes in Y */
(PID.TID 0000.0001)      nSx =    1 ; /* No. tiles in X per process */
(PID.TID 0000.0001)      nSy =    1 ; /* No. tiles in Y per process */
(PID.TID 0000.0001)      sNx =   90 ; /* Tile size in X */
(PID.TID 0000.0001)      sNy =   90 ; /* Tile size in Y */
(PID.TID 0000.0001)      OLx =    4 ; /* Tile overlap distance in X */
(PID.TID 0000.0001)      OLy =    4 ; /* Tile overlap distance in Y */
(PID.TID 0000.0001)      nTx =    1 ; /* No. threads in X per process */
(PID.TID 0000.0001)      nTy =    1 ; /* No. threads in Y per process */
(PID.TID 0000.0001)       Nr =  100 ; /* No. levels in the vertical   */
(PID.TID 0000.0001)       Nx = 2160 ; /* Total domain size in X ( = nPx*nSx*sNx ) */
(PID.TID 0000.0001)       Ny =  540 ; /* Total domain size in Y ( = nPy*nSy*sNy ) */
(PID.TID 0000.0001)   nTiles =    1 ; /* Total no. tiles per process ( = nSx*nSy ) */
(PID.TID 0000.0001)   nProcs =  144 ; /* Total no. processes ( = nPx*nPy ) */
(PID.TID 0000.0001) nThreads =    1 ; /* Total no. threads per process ( = nTx*nTy ) */
(PID.TID 0000.0001) usingMPI =    T ; /* Flag used to control whether MPI is in use */
(PID.TID 0000.0001)                   /*  note: To execute a program with MPI calls */
(PID.TID 0000.0001)                   /*  it must be launched appropriately e.g     */
(PID.TID 0000.0001)                   /*  "mpirun -np 64 ......"                    */
(PID.TID 0000.0001) useCoupler=    F ;/* Flag used to control communications with   */
(PID.TID 0000.0001)                   /*  other model components, through a coupler */
(PID.TID 0000.0001) debugMode =    F ; /* print debug msg. (sequence of S/R calls)  */
(PID.TID 0000.0001) printMapIncludesZeros=    F ; /* print zeros in Std.Output maps */
(PID.TID 0000.0001) maxLengthPrt1D=   65 /* maxLength of 1D array printed to StdOut */
(PID.TID 0000.0001) 
(PID.TID 0000.0001) ======= Starting MPI parallel Run =========
(PID.TID 0000.0001)  My Processor Name (len:  8 ) = r15i6n12
(PID.TID 0000.0001)  Located at (  0,  0) on processor grid (0: 23,0:  5)
(PID.TID 0000.0001)  Origin at  (     1,     1) on global grid (1:  2160,1:   540)
(PID.TID 0000.0001)  North neighbor = processor 0001
(PID.TID 0000.0001)  South neighbor = processor 0005
(PID.TID 0000.0001)   East neighbor = processor 0006
(PID.TID 0000.0001)   West neighbor = processor 0138
(PID.TID 0000.0001) // ======================================================
(PID.TID 0000.0001) // Mapping of tiles to threads
(PID.TID 0000.0001) // ======================================================
(PID.TID 0000.0001) // -o- Thread   1, tiles (   1:   1,   1:   1)
(PID.TID 0000.0001) 
(PID.TID 0000.0001) W2_READPARMS: opening data.exch2
(PID.TID 0000.0001)  OPEN_COPY_DATA_FILE: opening file data.exch2
(PID.TID 0000.0001) // =======================================================
(PID.TID 0000.0001) // Parameter file "data.exch2"
(PID.TID 0000.0001) // =======================================================
(PID.TID 0000.0001) ># EXCH2 Package: Wrapper-2 User Choice
(PID.TID 0000.0001) >#--------------------
(PID.TID 0000.0001) >#  preDefTopol   :: pre-defined Topology selector:
(PID.TID 0000.0001) >#                :: = 0 : topology defined from processing "data.exch2";
(PID.TID 0000.0001) >#                :: = 1 : simple, single facet topology;
(PID.TID 0000.0001) >#                :: = 2 : customized topology (w2_set_myown_facets)
(PID.TID 0000.0001) >#                :: = 3 : 6-facet Cube (3 face-dims: nRed, nGreen, nBlue).
(PID.TID 0000.0001) >#  dimsFacets    :: facet pair of dimensions (n1x,n1y, n2x,n2y ...)
(PID.TID 0000.0001) >#  facetEdgeLink :: Face-Edge connectivity map:
(PID.TID 0000.0001) >#    facetEdgeLink(i,j)=XX.1 : face(j)-edge(i) (i=1,2,3,4 <==> N,S,E,W)
(PID.TID 0000.0001) >#    is connected to Northern edge of face "XX" ; similarly,
(PID.TID 0000.0001) >#    = XX.2 : to Southern.E, XX.3 = Eastern.E, XX.4 = Western.E of face "XX"
(PID.TID 0000.0001) >#  blankList     :: List of "blank" tiles
(PID.TID 0000.0001) >#  W2_mapIO      :: global map IO selector (-1 = old type ; 0 = 1 long line in X
(PID.TID 0000.0001) >#                :: 1 = compact, mostly in Y dir)
(PID.TID 0000.0001) >#  W2_printMsg   :: option for information messages printing
(PID.TID 0000.0001) >#                :: <0 : write to log file ; =0 : minimum print ;
(PID.TID 0000.0001) >#                :: =1 : no duplicated print ; =2 : all processes do print
(PID.TID 0000.0001) >#--------------------
(PID.TID 0000.0001) > &W2_EXCH2_PARM01
(PID.TID 0000.0001) >  W2_printMsg= 0,
(PID.TID 0000.0001) >  W2_mapIO   = 1,
(PID.TID 0000.0001) >#
(PID.TID 0000.0001) >#-- 5 facets llc_270 topology (drop facet 6 and its connection):
(PID.TID 0000.0001) >  preDefTopol = 1,
(PID.TID 0000.0001) >  dimsFacets = 2160, 540,
(PID.TID 0000.0001) > &
(PID.TID 0000.0001) 
(PID.TID 0000.0001) W2_READPARMS: finished reading data.exch2
(PID.TID 0000.0001) W2_useE2ioLayOut=    T ;/* T: use Exch2 glob IO map; F: use model default */
(PID.TID 0000.0001) W2_mapIO        =   1 ; /* select option for Exch2 global-IO map */
(PID.TID 0000.0001) W2_printMsg     =   0 ; /* select option for printing information */
(PID.TID 0000.0001) ===== Start setting W2 TOPOLOGY:
(PID.TID 0000.0001) W2_E2SETUP: number of Active Tiles =     144
(PID.TID 0000.0001) W2_E2SETUP: number of Blank Tiles  =       0
(PID.TID 0000.0001) W2_E2SETUP: Total number of Tiles  =     144
(PID.TID 0000.0001) W2_SET_SINGLE_FACET: preDefTopol=  1 selected
(PID.TID 0000.0001) W2_E2SETUP: Total number of Facets =       1
(PID.TID 0000.0001) W2_SET_F2F_INDEX: index matrix for connected Facet-Edges:
(PID.TID 0000.0001) W2_SET_MAP_TILES: tile mapping within facet and global Map:
(PID.TID 0000.0001)  W2_mapIO = 2160 (=   24*sNx)
(PID.TID 0000.0001)  Global Map (IO): X-size=    2160 , Y-size=     540
(PID.TID 0000.0001) W2_SET_MAP_TILES: tile offset within facet and global Map:
- facet  1 : X-size=  2160 , Y-size=   540 ;  144 tiles (Tx,Ty=  24,   6)
(PID.TID 0000.0001) W2_SET_MAP_CUMSUM: setting Facet Matrix for CUMUL-SUM
 Facet Matrix for CUMUL-SUM (nFacets=   1, nActive=   1 ):
- facet  1 :  0  0 ,
(PID.TID 0000.0001) W2_SET_MAP_CUMSUM: done (skip Tile Matrix setting)
(PID.TID 0000.0001) W2_SET_TILE2TILES: tile neighbours and index connection:
(PID.TID 0000.0001) current Max.Nb.Neighbours (e.g., on tile    1 ) =  4
(PID.TID 0000.0001) ===== W2 TILE TOPOLOGY =====
(PID.TID 0000.0001)  TILE:     1 (bi,bj=   1   1 ), Nb of Neighbours =  4
(PID.TID 0000.0001)     NEIGHBOUR  1 = TILE   25 (n=  2) Comm = MSG (PROC=    2)
(PID.TID 0000.0001)     NEIGHBOUR  2 = TILE  121 (n=  1) Comm = MSG (PROC=    6)
(PID.TID 0000.0001)     NEIGHBOUR  3 = TILE    2 (n=  4) Comm = MSG (PROC=    7)
(PID.TID 0000.0001)     NEIGHBOUR  4 = TILE   24 (n=  3) Comm = MSG (PROC=  139)
(PID.TID 0000.0001) =====       setting W2 TOPOLOGY: Done
(PID.TID 0000.0001) 
(PID.TID 0000.0001)  INI_PARMS: opening model parameter file "data"
(PID.TID 0000.0001)  OPEN_COPY_DATA_FILE: opening file data
(PID.TID 0000.0001) // =======================================================
(PID.TID 0000.0001) // Parameter file "data"
(PID.TID 0000.0001) // =======================================================
(PID.TID 0000.0001) >### Data file with primary model parameters -----------------------------------
(PID.TID 0000.0001) >#
(PID.TID 0000.0001) >### Continuous equation parameters --------------------------------------------
(PID.TID 0000.0001) > &PARM01
(PID.TID 0000.0001) >## Reference temperatures and salinities for every vertical level.
(PID.TID 0000.0001) > tRef =  18.89, 18.89, 18.89, 18.89, 18.89, 18.87, 18.85, 18.82,
(PID.TID 0000.0001) >         18.80, 18.73, 18.63, 18.49, 18.28, 18.08, 17.86, 17.63,
(PID.TID 0000.0001) >         17.40, 17.18, 16.95, 16.73, 16.52, 16.31, 16.10, 15.89,
(PID.TID 0000.0001) >         15.69, 15.49, 15.28, 15.08, 14.88, 14.67, 14.47, 14.25,
(PID.TID 0000.0001) >         14.03, 13.80, 13.55, 13.29, 13.01, 12.73, 12.42, 12.11,
(PID.TID 0000.0001) >         11.78, 11.43, 11.07, 10.70, 10.31,  9.93,  9.53,  9.11,
(PID.TID 0000.0001) >          8.71,  8.29,  7.89,  7.51,  7.13,  6.78,  6.44,  6.11,
(PID.TID 0000.0001) >          5.81,  5.51,  5.23,  4.97,  4.73,  4.51,  4.30,  4.11,
(PID.TID 0000.0001) >          3.94,  3.78,  3.63,  3.50,  3.38,  3.25,  3.14,  3.04,
(PID.TID 0000.0001) >          2.94,  2.83,  2.74,  2.64,  2.54,  2.45,  2.36,  2.27,
(PID.TID 0000.0001) >          2.19,  2.10,  2.03,  1.95,  1.86,  1.78,  1.70,  1.63,
(PID.TID 0000.0001) >          1.55,  1.48,  1.41,  1.34,  1.27,  1.20,  1.13,  1.06,
(PID.TID 0000.0001) >          1.00,  0.96,  0.93,  0.91,
(PID.TID 0000.0001) > sRef =  34.84, 34.84, 34.84, 34.84, 34.84, 34.84, 34.85, 34.85,
(PID.TID 0000.0001) >         34.85, 34.86, 34.87, 34.88, 34.90, 34.91, 34.93, 34.95,
(PID.TID 0000.0001) >         34.96, 34.98, 34.99, 35.00, 35.01, 35.02, 35.03, 35.04,
(PID.TID 0000.0001) >         35.05, 35.06, 35.07, 35.07, 35.07, 35.07, 35.07, 35.07,
(PID.TID 0000.0001) >         35.07, 35.06, 35.05, 35.04, 35.03, 35.02, 35.01, 34.99,
(PID.TID 0000.0001) >         34.97, 34.95, 34.92, 34.90, 34.87, 34.84, 34.81, 34.78,
(PID.TID 0000.0001) >         34.75, 34.72, 34.69, 34.67, 34.65, 34.62, 34.61, 34.60,
(PID.TID 0000.0001) >         34.59, 34.59, 34.58, 34.59, 34.59, 34.60, 34.60, 34.61,
(PID.TID 0000.0001) >         34.62, 34.63, 34.64, 34.65, 34.66, 34.67, 34.67, 34.68,
(PID.TID 0000.0001) >         34.69, 34.70, 34.71, 34.71, 34.72, 34.72, 34.73, 34.73,
(PID.TID 0000.0001) >         34.73, 34.74, 34.74, 34.74, 34.74, 34.75, 34.74, 34.74,
(PID.TID 0000.0001) >         34.74, 34.74, 34.74, 34.74, 34.74, 34.74, 34.73, 34.73,
(PID.TID 0000.0001) >         34.73, 34.73, 34.73, 34.73,
(PID.TID 0000.0001) > rhonil        = 1029.,
(PID.TID 0000.0001) > rhoConstFresh = 1000.,
(PID.TID 0000.0001) > eosType = 'JMD95Z',
(PID.TID 0000.0001) >#
(PID.TID 0000.0001) >## Various prescriptions for viscosity and diffusivity.
(PID.TID 0000.0001) > viscAr     = 5.e-04,
(PID.TID 0000.0001) > viscA4Grid = 0.0,
(PID.TID 0000.0001) > diffKhT    = 0.E0,
(PID.TID 0000.0001) > diffKhS    = 0.E0,
(PID.TID 0000.0001) > diffK4T    = 0.E10,
(PID.TID 0000.0001) > diffK4S    = 0.E10,
(PID.TID 0000.0001) > diffKrT    = 1.0e-5,
(PID.TID 0000.0001) > diffKrS    = 1.0e-5,
(PID.TID 0000.0001) > bottomDragQuadratic = 0.002,
(PID.TID 0000.0001) > no_slip_sides     = .TRUE.,
(PID.TID 0000.0001) > no_slip_bottom    = .TRUE.,
(PID.TID 0000.0001) > implicitDiffusion = .TRUE.,
(PID.TID 0000.0001) > implicitViscosity = .TRUE.,
(PID.TID 0000.0001) ># horizontal momentum closure
(PID.TID 0000.0001) > viscC4Leith   = 2.0,
(PID.TID 0000.0001) > viscC4Leithd  = 2.0,
(PID.TID 0000.0001) > viscA4GridMax = 0.8,
(PID.TID 0000.0001) >#
(PID.TID 0000.0001) >## Parameters that control numerical methods like advection schemes and
(PID.TID 0000.0001) >#  treatment of the free-surface.
(PID.TID 0000.0001) > tempAdvScheme = 7,
(PID.TID 0000.0001) > saltAdvScheme = 7,
(PID.TID 0000.0001) > implicitFreeSurface     = .TRUE.,
(PID.TID 0000.0001) > staggerTimeStep         = .TRUE.,
(PID.TID 0000.0001) > exactConserv            = .TRUE.,
(PID.TID 0000.0001) > vectorInvariantMomentum = .TRUE.,
(PID.TID 0000.0001) > useAreaViscLength       = .TRUE.,
(PID.TID 0000.0001) > highOrderVorticity      = .TRUE.,
(PID.TID 0000.0001) > multiDimAdvection       = .TRUE.,
(PID.TID 0000.0001) >#
(PID.TID 0000.0001) >## These parameters seem to be associated with the external forcing.
(PID.TID 0000.0001) > convertFW2Salt = -1.,
(PID.TID 0000.0001) > temp_EvPrRn    =  0.,
(PID.TID 0000.0001) > useRealFreshWaterFlux = .FALSE.,
(PID.TID 0000.0001) > allowFreezing         = .FALSE.,
(PID.TID 0000.0001) >#
(PID.TID 0000.0001) >## Parameters associated with bathymetry specification.
(PID.TID 0000.0001) > hFacMin   = 0.2,
(PID.TID 0000.0001) > hFacMinDr = 5.,
(PID.TID 0000.0001) >#
(PID.TID 0000.0001) >## Parameters for reading, writing, and misc numerical details.
(PID.TID 0000.0001) > globalFiles     = .TRUE.,
(PID.TID 0000.0001) > useSingleCpuIO  = .TRUE.,
(PID.TID 0000.0001) > readBinaryPrec  = 32,
(PID.TID 0000.0001) > writeBinaryPrec = 32,
(PID.TID 0000.0001) > debuglevel      = 2,
(PID.TID 0000.0001) >#
(PID.TID 0000.0001) >## Unused parameters.
(PID.TID 0000.0001) ># gravity = 9.81,
(PID.TID 0000.0001) ># viscA4Grid = 2.0E-3,
(PID.TID 0000.0001) ># viscAhGrid = 2.5E-4,
(PID.TID 0000.0001) ># bottomDraglinear    = 1.E-3,
(PID.TID 0000.0001) ># Note: nonlinFreeSurf=1 with rStar=0 breaks the code.
(PID.TID 0000.0001) ># nonlinFreeSurf = 4,
(PID.TID 0000.0001) ># select_rStar   = 1,
(PID.TID 0000.0001) ># hFacInf   = 0.1,
(PID.TID 0000.0001) ># hFacSup   = 5.,
(PID.TID 0000.0001) ># implicSurfPress = 0.6,
(PID.TID 0000.0001) ># implicDiv2DFlow = 0.6,
(PID.TID 0000.0001) ># useSingleCpuInput = .TRUE.,
(PID.TID 0000.0001) ># set to eccov4, make sure minbathy=20m first
(PID.TID 0000.0001) ># debuglevel = -1,
(PID.TID 0000.0001) ># useJamartWetPoints = .TRUE.,
(PID.TID 0000.0001) ># writeBinaryPrec=64,
(PID.TID 0000.0001) > /
(PID.TID 0000.0001) >### Elliptic solver parameters ------------------------------------------------
(PID.TID 0000.0001) > &PARM02
(PID.TID 0000.0001) > cg2dMaxIters       = 1000,
(PID.TID 0000.0001) ># cg2dTargetResidual = 1.E-8,
(PID.TID 0000.0001) > cg2dTargetResWunit = 1e-18,
(PID.TID 0000.0001) >#
(PID.TID 0000.0001) >#cg2dMaxIters       = 100,
(PID.TID 0000.0001) >#cg2dTargetResidual = 1.E-5,
(PID.TID 0000.0001) > &
(PID.TID 0000.0001) >### Time stepping parameters --------------------------------------------------
(PID.TID 0000.0001) > &PARM03
(PID.TID 0000.0001) > deltaT      =    240.,
(PID.TID 0000.0001) > nIter0      =  0,
(PID.TID 0000.0001) > nTimeSteps  =  15,
(PID.TID 0000.0001) > pChkptFreq  = 864000.,
(PID.TID 0000.0001) > monitorFreq =   240.,
(PID.TID 0000.0001) > abEps       = 0.1,
(PID.TID 0000.0001) >## It is unclear what these specify.
(PID.TID 0000.0001) > pickupStrictlyMatch = .FALSE.,
(PID.TID 0000.0001) > forcing_In_AB       = .FALSE.,
(PID.TID 0000.0001) > momDissip_In_AB     = .FALSE.,
(PID.TID 0000.0001) > dumpInitAndLast     = .FALSE.,
(PID.TID 0000.0001) > /
(PID.TID 0000.0001) >### Gridding parameters -------------------------------------------------------
(PID.TID 0000.0001) > &PARM04
(PID.TID 0000.0001) > usingSphericalPolarGrid=.TRUE.,
(PID.TID 0000.0001) >## Specify the height of each vertical level.
(PID.TID 0000.0001) > delR =   5.00,   5.00,   5.00,   5.00,   5.00,   5.00,   5.00,   5.00,   5.00,
(PID.TID 0000.0001) >          5.00,   5.00,   5.00,   5.00,   5.00,   5.00,   5.01,   5.01,   5.02,
(PID.TID 0000.0001) >          5.04,   5.07,   5.12,   5.20,   5.31,   5.49,   5.72,   6.04,   6.45,
(PID.TID 0000.0001) >          6.97,   7.62,   8.42,   9.36,  10.46,  11.72,  13.13,  14.70,  16.40,
(PID.TID 0000.0001) >         18.24,  20.18,  22.21,  24.29,  26.43,  28.57,  30.71,  32.79,  34.82,
(PID.TID 0000.0001) >         36.76,  38.60,  40.30,  41.87,  43.28,  44.54,  45.64,  46.58,  47.38,
(PID.TID 0000.0001) >         48.03,  48.55,  48.96,  49.29,  49.53,  49.72,  49.90,  50.11,  50.41,
(PID.TID 0000.0001) >         50.92,  51.69,  52.87,  54.54,  56.79,  59.67,  63.16,  67.26,  71.83,
(PID.TID 0000.0001) >         76.83,  82.11,  87.61,  93.22,  98.91, 104.64, 110.38, 116.12, 121.87,
(PID.TID 0000.0001) >        127.63, 133.38, 139.12, 144.87, 150.63, 156.38, 162.12, 167.87, 173.63,
(PID.TID 0000.0001) >        179.38, 185.12, 190.87, 196.63, 202.38, 208.12, 213.87, 219.63, 225.38,
(PID.TID 0000.0001) >        231.12,
(PID.TID 0000.0001) > xgOrigin=-83.,
(PID.TID 0000.0001) > dxSpacing=0.041666666666667,
(PID.TID 0000.0001) > ygOrigin=26.650054931640625,
(PID.TID 0000.0001) > delYFile = 'delYFile',
(PID.TID 0000.0001) > /
(PID.TID 0000.0001) ># -----------------------------------------------------------------------------
(PID.TID 0000.0001) >### Bathymetry files and initial condition files
(PID.TID 0000.0001) > &PARM05
(PID.TID 0000.0001) > bathyFile       = 'bathy.bin',
(PID.TID 0000.0001) > hydrogThetaFile = 'T0_2160x540x100.bin',
(PID.TID 0000.0001) > hydrogSaltFile  = 'S0_2160x540x100.bin',
(PID.TID 0000.0001) > uVelInitFile    = 'U0_2160x540x100.bin',
(PID.TID 0000.0001) > vVelInitFile    = 'V0_2160x540x100.bin',
(PID.TID 0000.0001) ># diffKrFile  = 'diffkr_basin_v1m9EfC_llc1080.bin',
(PID.TID 0000.0001) ># viscA4Dfile = 'visc3DblendfromrunobcsCdiv1e6_08Mar2016_aste2160.bin',
(PID.TID 0000.0001) ># viscA4Zfile = 'visc3DblendfromrunobcsCdiv1e6_08Mar2016_aste2160.bin',
(PID.TID 0000.0001) > /
(PID.TID 0000.0001) 
(PID.TID 0000.0001)  INI_PARMS ; starts to read PARM01
(PID.TID 0000.0001)  INI_PARMS ; read PARM01 : OK
(PID.TID 0000.0001)  INI_PARMS ; starts to read PARM02
(PID.TID 0000.0001)  INI_PARMS ; read PARM02 : OK
(PID.TID 0000.0001)  INI_PARMS ; starts to read PARM03
(PID.TID 0000.0001)  INI_PARMS ; read PARM03 : OK
(PID.TID 0000.0001)  INI_PARMS ; starts to read PARM04
(PID.TID 0000.0001)  INI_PARMS ; read PARM04 : OK
(PID.TID 0000.0001)  INI_PARMS ; starts to read PARM05
(PID.TID 0000.0001)  INI_PARMS ; read PARM05 : OK
(PID.TID 0000.0001)  INI_PARMS: finished reading file "data"
(PID.TID 0000.0001)  PACKAGES_BOOT: opening data.pkg
(PID.TID 0000.0001)  OPEN_COPY_DATA_FILE: opening file data.pkg
(PID.TID 0000.0001) // =======================================================
(PID.TID 0000.0001) // Parameter file "data.pkg"
(PID.TID 0000.0001) // =======================================================
(PID.TID 0000.0001) ># Packages
(PID.TID 0000.0001) > &PACKAGES
(PID.TID 0000.0001) > useCAL         = .TRUE.,
(PID.TID 0000.0001) > useEXF         = .TRUE.,
(PID.TID 0000.0001) > useKPP         = .TRUE.,
(PID.TID 0000.0001) > useDiagnostics = .TRUE.,
(PID.TID 0000.0001) > useOBCS        = .TRUE.,
(PID.TID 0000.0001) ># useProfiles=.TRUE.,
(PID.TID 0000.0001) > /
(PID.TID 0000.0001) 
(PID.TID 0000.0001)  PACKAGES_BOOT: finished reading data.pkg
(PID.TID 0000.0001)  PACKAGES_BOOT: On/Off package Summary
 --------  pkgs with a standard "usePKG" On/Off switch in "data.pkg":  --------
 pkg/obcs                 compiled   and   used ( useOBCS                  = T )
 pkg/kpp                  compiled   and   used ( useKPP                   = T )
 pkg/cal                  compiled   and   used ( useCAL                   = T )
 pkg/exf                  compiled   and   used ( useEXF                   = T )
 pkg/diagnostics          compiled   and   used ( useDiagnostics           = T )
 -------- pkgs without standard "usePKG" On/Off switch in "data.pkg":  --------
 pkg/generic_advdiff      compiled   and   used ( useGAD                   = T )
 pkg/mom_common           compiled   and   used ( momStepping              = T )
 pkg/mom_vecinv           compiled   and   used ( +vectorInvariantMomentum = T )
 pkg/monitor              compiled   and   used ( monitorFreq > 0.         = T )
 pkg/debug                compiled but not used ( debugMode                = F )
 pkg/exch2                compiled   and   used
 pkg/rw                   compiled   and   used
 pkg/mdsio                compiled   and   used
(PID.TID 0000.0001)  PACKAGES_BOOT: End of package Summary
(PID.TID 0000.0001) 
(PID.TID 0000.0001) CAL_READPARMS: opening data.cal
(PID.TID 0000.0001)  OPEN_COPY_DATA_FILE: opening file data.cal
(PID.TID 0000.0001) // =======================================================
(PID.TID 0000.0001) // Parameter file "data.cal"
(PID.TID 0000.0001) // =======================================================
(PID.TID 0000.0001) >#
(PID.TID 0000.0001) ># *******************
(PID.TID 0000.0001) ># Calendar Parameters
(PID.TID 0000.0001) ># *******************
(PID.TID 0000.0001) > &CAL_NML
(PID.TID 0000.0001) > TheCalendar='gregorian',
(PID.TID 0000.0001) > startDate_1=20030101,
(PID.TID 0000.0001) > startDate_2=000000,
(PID.TID 0000.0001) > calendarDumps = .TRUE.,
(PID.TID 0000.0001) > &
(PID.TID 0000.0001) 
(PID.TID 0000.0001) CAL_READPARMS: finished reading data.cal
(PID.TID 0000.0001) EXF_READPARMS: opening data.exf
(PID.TID 0000.0001)  OPEN_COPY_DATA_FILE: opening file data.exf
(PID.TID 0000.0001) // =======================================================
(PID.TID 0000.0001) // Parameter file "data.exf"
(PID.TID 0000.0001) // =======================================================
(PID.TID 0000.0001) ># *********************
(PID.TID 0000.0001) ># External Forcing Data
(PID.TID 0000.0001) ># *********************
(PID.TID 0000.0001) >#
(PID.TID 0000.0001) > &EXF_NML_01
(PID.TID 0000.0001) >#
(PID.TID 0000.0001) > useAtmWind        = .TRUE.,
(PID.TID 0000.0001) >#
(PID.TID 0000.0001) >#TO COMBINE WITH ALLOW_ZENITH_ANGLE:
(PID.TID 0000.0001) ># exf_albedo        = 0.1,
(PID.TID 0000.0001) ># useExfZenIncoming = .TRUE.,
(PID.TID 0000.0001) ># select_ZenAlbedo  = 1,
(PID.TID 0000.0001) >##
(PID.TID 0000.0001) ># ocean_emissivity = 0.97,
(PID.TID 0000.0001) ># ice_emissivity = 0.95,
(PID.TID 0000.0001) ># snow_emissivity = 0.95,
(PID.TID 0000.0001) >#
(PID.TID 0000.0001) ># exf_albedo        = 0.1556,
(PID.TID 0000.0001) > exf_albedo        = 0.1,
(PID.TID 0000.0001) > exf_scal_BulkCdn  = 0.9997,
(PID.TID 0000.0001) > exf_iprec         = 32,
(PID.TID 0000.0001) > exf_iprec_obcs    = 32,
(PID.TID 0000.0001) > exf_yftype        = 'RL',
(PID.TID 0000.0001) > useExfYearlyFields= .TRUE.,
(PID.TID 0000.0001) > useExfCheckRange  = .FALSE.,
(PID.TID 0000.0001) > useRelativeWind   = .TRUE.,
(PID.TID 0000.0001) > &
(PID.TID 0000.0001) >#
(PID.TID 0000.0001) > &EXF_NML_02
(PID.TID 0000.0001) > precipfile        = 'jra55/jra55_rain',
(PID.TID 0000.0001) > atempfile         = 'jra55/jra55_tmp2m_degC',
(PID.TID 0000.0001) > aqhfile           = 'jra55/jra55_spfh2m',
(PID.TID 0000.0001) > swdownfile        = 'jra55/jra55_dsw',
(PID.TID 0000.0001) > lwdownfile        = 'jra55/jra55_dlw',
(PID.TID 0000.0001) > apressurefile     = 'jra55/jra55_pres',
(PID.TID 0000.0001) > tidePotfile       = 'tide',
(PID.TID 0000.0001) > uwindfile         = 'jra55/jra55_u10m',
(PID.TID 0000.0001) > vwindfile         = 'jra55/jra55_v10m',
(PID.TID 0000.0001) > runofffile        = 'runoff1p2472-360x180x12.bin',
(PID.TID 0000.0001) >#
(PID.TID 0000.0001) > precipstartdate1  = 19790101,
(PID.TID 0000.0001) > precipstartdate2  = 013000,
(PID.TID 0000.0001) > precipperiod      = 10800.0,
(PID.TID 0000.0001) > atempstartdate1   = 19790101,
(PID.TID 0000.0001) > atempstartdate2   = 000000,
(PID.TID 0000.0001) > atempperiod       = 10800.0,
(PID.TID 0000.0001) > aqhstartdate1     = 19790101,
(PID.TID 0000.0001) > aqhstartdate2     = 000000,
(PID.TID 0000.0001) > aqhperiod         = 10800.0,
(PID.TID 0000.0001) > swdownstartdate1  = 19790101,
(PID.TID 0000.0001) > swdownstartdate2  = 013000,
(PID.TID 0000.0001) > swdownperiod      = 10800.0,
(PID.TID 0000.0001) > lwdownstartdate1  = 19790101,
(PID.TID 0000.0001) > lwdownstartdate2  = 013000,
(PID.TID 0000.0001) > lwdownperiod      = 10800.0,
(PID.TID 0000.0001) > apressurestartdate1  = 19790101,
(PID.TID 0000.0001) > apressurestartdate2  = 000000,
(PID.TID 0000.0001) > apressureperiod      = 10800.0,
(PID.TID 0000.0001) > tidePotstartdate1  = 19790101,
(PID.TID 0000.0001) > tidePotstartdate2  = 000000,
(PID.TID 0000.0001) > tidePotperiod      = 3600.0,
(PID.TID 0000.0001) > uwindstartdate1   = 19790101,
(PID.TID 0000.0001) > uwindstartdate2   = 000000,
(PID.TID 0000.0001) > uwindperiod       = 10800.0,
(PID.TID 0000.0001) > vwindstartdate1   = 19790101,
(PID.TID 0000.0001) > vwindstartdate2   = 000000,
(PID.TID 0000.0001) > vwindperiod       = 10800.0,
(PID.TID 0000.0001) ># "*period=-12" specifies monthly-mean forcing
(PID.TID 0000.0001) > runoffperiod      = -12,
(PID.TID 0000.0001) > &
(PID.TID 0000.0001) >#
(PID.TID 0000.0001) > &EXF_NML_03
(PID.TID 0000.0001) > exf_offset_atemp  = 273.15,
(PID.TID 0000.0001) > exf_inscal_swdown = -1.,
(PID.TID 0000.0001) > exf_inscal_lwdown = -1.,
(PID.TID 0000.0001) ># 1/365/24/3600 yr/s conversion, runoff [m/yr --> m/s]
(PID.TID 0000.0001) > exf_inscal_runoff = 3.1710e-08,
(PID.TID 0000.0001) > &
(PID.TID 0000.0001) >#
(PID.TID 0000.0001) > &EXF_NML_04
(PID.TID 0000.0001) >#if in global lat/lon, need interp, comment out runoff_interpMethod
(PID.TID 0000.0001) >#if already in aste compact format, set runoff_interpMethod=0
(PID.TID 0000.0001) ># runoff_interpMethod = 0,
(PID.TID 0000.0001) >#
(PID.TID 0000.0001) > precip_lon0       = 0.0D0,
(PID.TID 0000.0001) > precip_lon_inc    = 0.5625D0,
(PID.TID 0000.0001) > precip_lat0       = -89.57009D0,
(PID.TID 0000.0001) > precip_lat_inc    = 0.556914D0, 0.560202D0, 0.560946D0, 0.561227D0, 0.561363D0,
(PID.TID 0000.0001) >                     0.561440D0, 0.561487D0, 0.561518D0, 0.561539D0, 0.561554D0,
(PID.TID 0000.0001) >                     0.561566D0, 0.561575D0, 0.561582D0, 0.561587D0, 0.561592D0,
(PID.TID 0000.0001) >                     289*0.561619268965519,
(PID.TID 0000.0001) >                     0.561592D0, 0.561587D0, 0.561582D0, 0.561575D0, 0.561566D0,
(PID.TID 0000.0001) >                     0.561554D0, 0.561539D0, 0.561518D0, 0.561487D0, 0.561440D0,
(PID.TID 0000.0001) >                     0.561363D0, 0.561227D0, 0.560946D0, 0.560202D0, 0.556914D0,
(PID.TID 0000.0001) > precip_nlon       = 640,
(PID.TID 0000.0001) > precip_nlat       = 320,
(PID.TID 0000.0001) >#
(PID.TID 0000.0001) > atemp_lon0        = 0.0D0,
(PID.TID 0000.0001) > atemp_lon_inc     = 0.5625D0,
(PID.TID 0000.0001) > atemp_lat0        = -89.57009D0,
(PID.TID 0000.0001) > atemp_lat_inc     = 0.556914D0, 0.560202D0, 0.560946D0, 0.561227D0, 0.561363D0,
(PID.TID 0000.0001) >                     0.561440D0, 0.561487D0, 0.561518D0, 0.561539D0, 0.561554D0,
(PID.TID 0000.0001) >                     0.561566D0, 0.561575D0, 0.561582D0, 0.561587D0, 0.561592D0,
(PID.TID 0000.0001) >                     289*0.561619268965519,
(PID.TID 0000.0001) >                     0.561592D0, 0.561587D0, 0.561582D0, 0.561575D0, 0.561566D0,
(PID.TID 0000.0001) >                     0.561554D0, 0.561539D0, 0.561518D0, 0.561487D0, 0.561440D0,
(PID.TID 0000.0001) >                     0.561363D0, 0.561227D0, 0.560946D0, 0.560202D0, 0.556914D0,
(PID.TID 0000.0001) > atemp_nlon        = 640,
(PID.TID 0000.0001) > atemp_nlat        = 320,
(PID.TID 0000.0001) >#
(PID.TID 0000.0001) > aqh_lon0          = 0.0D0,
(PID.TID 0000.0001) > aqh_lon_inc       = 0.5625D0,
(PID.TID 0000.0001) > aqh_lat0          = -89.57009D0,
(PID.TID 0000.0001) > aqh_lat_inc       = 0.556914D0, 0.560202D0, 0.560946D0, 0.561227D0, 0.561363D0,
(PID.TID 0000.0001) >                     0.561440D0, 0.561487D0, 0.561518D0, 0.561539D0, 0.561554D0,
(PID.TID 0000.0001) >                     0.561566D0, 0.561575D0, 0.561582D0, 0.561587D0, 0.561592D0,
(PID.TID 0000.0001) >                     289*0.561619268965519,
(PID.TID 0000.0001) >                     0.561592D0, 0.561587D0, 0.561582D0, 0.561575D0, 0.561566D0,
(PID.TID 0000.0001) >                     0.561554D0, 0.561539D0, 0.561518D0, 0.561487D0, 0.561440D0,
(PID.TID 0000.0001) >                     0.561363D0, 0.561227D0, 0.560946D0, 0.560202D0, 0.556914D0,
(PID.TID 0000.0001) > aqh_nlon          = 640,
(PID.TID 0000.0001) > aqh_nlat          = 320,
(PID.TID 0000.0001) >#
(PID.TID 0000.0001) > swdown_lon0       = 0.0D0,
(PID.TID 0000.0001) > swdown_lon_inc    = 0.5625D0,
(PID.TID 0000.0001) > swdown_lat0       = -89.57009D0,
(PID.TID 0000.0001) > swdown_lat_inc    = 0.556914D0, 0.560202D0, 0.560946D0, 0.561227D0, 0.561363D0,
(PID.TID 0000.0001) >                     0.561440D0, 0.561487D0, 0.561518D0, 0.561539D0, 0.561554D0,
(PID.TID 0000.0001) >                     0.561566D0, 0.561575D0, 0.561582D0, 0.561587D0, 0.561592D0,
(PID.TID 0000.0001) >                     289*0.561619268965519,
(PID.TID 0000.0001) >                     0.561592D0, 0.561587D0, 0.561582D0, 0.561575D0, 0.561566D0,
(PID.TID 0000.0001) >                     0.561554D0, 0.561539D0, 0.561518D0, 0.561487D0, 0.561440D0,
(PID.TID 0000.0001) >                     0.561363D0, 0.561227D0, 0.560946D0, 0.560202D0, 0.556914D0,
(PID.TID 0000.0001) > swdown_nlon       = 640,
(PID.TID 0000.0001) > swdown_nlat       = 320,
(PID.TID 0000.0001) >#
(PID.TID 0000.0001) > lwdown_lon0       = 0.0D0,
(PID.TID 0000.0001) > lwdown_lon_inc    = 0.5625D0,
(PID.TID 0000.0001) > lwdown_lat0       = -89.57009D0,
(PID.TID 0000.0001) > lwdown_lat_inc    = 0.556914D0, 0.560202D0, 0.560946D0, 0.561227D0, 0.561363D0,
(PID.TID 0000.0001) >                     0.561440D0, 0.561487D0, 0.561518D0, 0.561539D0, 0.561554D0,
(PID.TID 0000.0001) >                     0.561566D0, 0.561575D0, 0.561582D0, 0.561587D0, 0.561592D0,
(PID.TID 0000.0001) >                     289*0.561619268965519,
(PID.TID 0000.0001) >                     0.561592D0, 0.561587D0, 0.561582D0, 0.561575D0, 0.561566D0,
(PID.TID 0000.0001) >                     0.561554D0, 0.561539D0, 0.561518D0, 0.561487D0, 0.561440D0,
(PID.TID 0000.0001) >                     0.561363D0, 0.561227D0, 0.560946D0, 0.560202D0, 0.556914D0,
(PID.TID 0000.0001) > lwdown_nlon       = 640,
(PID.TID 0000.0001) > lwdown_nlat       = 320,
(PID.TID 0000.0001) >#
(PID.TID 0000.0001) > apressure_lon0       = 0.0D0,
(PID.TID 0000.0001) > apressure_lon_inc    = 0.5625D0,
(PID.TID 0000.0001) > apressure_lat0       = -89.57009D0,
(PID.TID 0000.0001) > apressure_lat_inc    = 0.556914D0, 0.560202D0, 0.560946D0, 0.561227D0, 0.561363D0,
(PID.TID 0000.0001) >                     0.561440D0, 0.561487D0, 0.561518D0, 0.561539D0, 0.561554D0,
(PID.TID 0000.0001) >                     0.561566D0, 0.561575D0, 0.561582D0, 0.561587D0, 0.561592D0,
(PID.TID 0000.0001) >                     289*0.561619268965519,
(PID.TID 0000.0001) >                     0.561592D0, 0.561587D0, 0.561582D0, 0.561575D0, 0.561566D0,
(PID.TID 0000.0001) >                     0.561554D0, 0.561539D0, 0.561518D0, 0.561487D0, 0.561440D0,
(PID.TID 0000.0001) >                     0.561363D0, 0.561227D0, 0.560946D0, 0.560202D0, 0.556914D0,
(PID.TID 0000.0001) > apressure_nlon       = 640,
(PID.TID 0000.0001) > apressure_nlat       = 320,
(PID.TID 0000.0001) >#
(PID.TID 0000.0001) > tidePot_lon0       = 0.0D0,
(PID.TID 0000.0001) > tidePot_lon_inc    = 1.0D0,
(PID.TID 0000.0001) > tidePot_lat0       = -90.0D0,
(PID.TID 0000.0001) > tidePot_lat_inc    = 180*1.0D0,
(PID.TID 0000.0001) > tidePot_nlon       = 360,
(PID.TID 0000.0001) > tidePot_nlat       = 181,
(PID.TID 0000.0001) >#
(PID.TID 0000.0001) > uwind_lon0        = 0.0D0,
(PID.TID 0000.0001) > uwind_lon_inc     = 0.5625D0,
(PID.TID 0000.0001) > uwind_lat0        = -89.57009D0,
(PID.TID 0000.0001) > uwind_lat_inc     = 0.556914D0, 0.560202D0, 0.560946D0, 0.561227D0, 0.561363D0,
(PID.TID 0000.0001) >                     0.561440D0, 0.561487D0, 0.561518D0, 0.561539D0, 0.561554D0,
(PID.TID 0000.0001) >                     0.561566D0, 0.561575D0, 0.561582D0, 0.561587D0, 0.561592D0,
(PID.TID 0000.0001) >                     289*0.561619268965519,
(PID.TID 0000.0001) >                     0.561592D0, 0.561587D0, 0.561582D0, 0.561575D0, 0.561566D0,
(PID.TID 0000.0001) >                     0.561554D0, 0.561539D0, 0.561518D0, 0.561487D0, 0.561440D0,
(PID.TID 0000.0001) >                     0.561363D0, 0.561227D0, 0.560946D0, 0.560202D0, 0.556914D0,
(PID.TID 0000.0001) > uwind_nlon        = 640,
(PID.TID 0000.0001) > uwind_nlat        = 320,
(PID.TID 0000.0001) >#
(PID.TID 0000.0001) > vwind_lon0        = 0.0D0,
(PID.TID 0000.0001) > vwind_lon_inc     = 0.5625D0,
(PID.TID 0000.0001) > vwind_lat0        = -89.57009D0,
(PID.TID 0000.0001) > vwind_lat_inc     = 0.556914D0, 0.560202D0, 0.560946D0, 0.561227D0, 0.561363D0,
(PID.TID 0000.0001) >                     0.561440D0, 0.561487D0, 0.561518D0, 0.561539D0, 0.561554D0,
(PID.TID 0000.0001) >                     0.561566D0, 0.561575D0, 0.561582D0, 0.561587D0, 0.561592D0,
(PID.TID 0000.0001) >                     289*0.561619268965519,
(PID.TID 0000.0001) >                     0.561592D0, 0.561587D0, 0.561582D0, 0.561575D0, 0.561566D0,
(PID.TID 0000.0001) >                     0.561554D0, 0.561539D0, 0.561518D0, 0.561487D0, 0.561440D0,
(PID.TID 0000.0001) >                     0.561363D0, 0.561227D0, 0.560946D0, 0.560202D0, 0.556914D0,
(PID.TID 0000.0001) > vwind_nlon        = 640,
(PID.TID 0000.0001) > vwind_nlat        = 320,
(PID.TID 0000.0001) >#
(PID.TID 0000.0001) > runoff_lon0       = 0.50D0,
(PID.TID 0000.0001) > runoff_lon_inc    = 1.0D0,
(PID.TID 0000.0001) > runoff_lat0       = -89.5D0,
(PID.TID 0000.0001) > runoff_lat_inc    = 179*1.,
(PID.TID 0000.0001) > runoff_nlon       = 360,
(PID.TID 0000.0001) > runoff_nlat       = 180,
(PID.TID 0000.0001) > &
(PID.TID 0000.0001) >#
(PID.TID 0000.0001) > &EXF_NML_OBCS
(PID.TID 0000.0001) >  obcsSstartdate1   = 20021215,
(PID.TID 0000.0001) >  obcsSstartdate2   = 060000,
(PID.TID 0000.0001) >  obcsSperiod       = 2629800.0,
(PID.TID 0000.0001) >#
(PID.TID 0000.0001) >  obcsNstartdate1   = 20021215,
(PID.TID 0000.0001) >  obcsNstartdate2   = 060000,
(PID.TID 0000.0001) >  obcsNperiod       = 2629800.0,
(PID.TID 0000.0001) > &
(PID.TID 0000.0001) 
(PID.TID 0000.0001) EXF_READPARMS: reading EXF_NML_01
(PID.TID 0000.0001) EXF_READPARMS: reading EXF_NML_02
(PID.TID 0000.0001) EXF_READPARMS: reading EXF_NML_03
(PID.TID 0000.0001) EXF_READPARMS: reading EXF_NML_04
(PID.TID 0000.0001) EXF_READPARMS: reading EXF_NML_OBCS
(PID.TID 0000.0001) EXF_READPARMS: finished reading data.exf
(PID.TID 0000.0001)  OBCS_READPARMS: opening data.obcs
(PID.TID 0000.0001)  OPEN_COPY_DATA_FILE: opening file data.obcs
(PID.TID 0000.0001) // =======================================================
(PID.TID 0000.0001) // Parameter file "data.obcs"
(PID.TID 0000.0001) // =======================================================
(PID.TID 0000.0001) ># ***************
(PID.TID 0000.0001) ># Open boundaries
(PID.TID 0000.0001) ># ***************
(PID.TID 0000.0001) > &OBCS_PARM01
(PID.TID 0000.0001) >OB_Jnorth = 2160*537,
(PID.TID 0000.0001) >OB_Jsouth = 2160*8,
(PID.TID 0000.0001) >#
(PID.TID 0000.0001) > useOBCSprescribe=.TRUE.,
(PID.TID 0000.0001) ># useOBCSsponge=.true.,
(PID.TID 0000.0001) > OBCS_monSelect = 3,
(PID.TID 0000.0001) ># >0: use 1rst O. upwind adv-scheme @ OB (=1: only if outflow)
(PID.TID 0000.0001) > OBCS_u1_adv_T = 1,
(PID.TID 0000.0001) > OBCS_u1_adv_S = 1,
(PID.TID 0000.0001) >#
(PID.TID 0000.0001) > OBSsFile='OBSs_2160x100x26.bin',
(PID.TID 0000.0001) > OBStFile='OBSt_2160x100x26.bin',
(PID.TID 0000.0001) > OBSuFile='OBSu_2160x100x26.bin',
(PID.TID 0000.0001) > OBSvFile='OBSv_2160x100x26.bin',
(PID.TID 0000.0001) >#
(PID.TID 0000.0001) > OBNsFile='OBNs_2160x100x26.bin',
(PID.TID 0000.0001) > OBNtFile='OBNt_2160x100x26.bin',
(PID.TID 0000.0001) > OBNuFile='OBNu_2160x100x26.bin',
(PID.TID 0000.0001) > OBNvFile='OBNv_2160x100x26.bin',
(PID.TID 0000.0001) ># Balancing
(PID.TID 0000.0001) > useOBCSbalance = .TRUE.,
(PID.TID 0000.0001) > OBCS_balanceFacN = -1,
(PID.TID 0000.0001) > OBCS_balanceFacS = -1,
(PID.TID 0000.0001) >## *****************************************
(PID.TID 0000.0001) >## Tidal BC parameters
(PID.TID 0000.0001) >## *****************************************
(PID.TID 0000.0001) > useOBCStides = .TRUE.,
(PID.TID 0000.0001) >##components   = M2       S2     N2       K2       K1      O1       P1       Q1       Mf         Mm
(PID.TID 0000.0001) >##periods (hr) = 12.4206  12     12.6583  11.9672  23.9345 25.8193  24.0659  26.8684  327.8599   661.31
(PID.TID 0000.0001) >##period(sec)  = 44714.165 43200.001 45570.054 43082.05 86164.077 92949.636 86637.2 96726.086 1180295.5 2380715.9
(PID.TID 0000.0001) >##components      m2        s2        n2        k2        k1        o1        p1        q1        mf        mm        m4        ms4       mn4
(PID.TID 0000.0001) >##period (hr): 12.420601 12.000000 12.658348 11.967236 23.934466 25.819343 24.065889 26.868357 327.859874 661.309962 6.210303 6.103339 6.269178
(PID.TID 0000.0001) >##period (s):  44714.165192 43200.001287 45570.053512 43082.050319 86164.077005 92949.635701 86637.199772 96726.085703 1180295.545550 2380715.863587 22357.090551 21972.021930 22569.042448
(PID.TID 0000.0001) > tidalPeriod  = 44714.165 43200.001 45570.054 43082.050 86164.077 92949.636 86637.200 96726.086 1180295.546 2380715.864 22357.091 21972.022 22569.042,
(PID.TID 0000.0001) > OBSamFile='OBSam_2160x13.bin',
(PID.TID 0000.0001) > OBNamFile='OBNam_2160x13.bin',
(PID.TID 0000.0001) > OBSphFile='OBSph_2160x13.bin',
(PID.TID 0000.0001) > OBNphFile='OBNph_2160x13.bin',
(PID.TID 0000.0001) > &
(PID.TID 0000.0001) ># *****************************************
(PID.TID 0000.0001) ># Sponge Layer Parameters.
(PID.TID 0000.0001) ># *****************************************
(PID.TID 0000.0001) > &OBCS_PARM03
(PID.TID 0000.0001) ># Urelaxobcsinner=2629800.E0,
(PID.TID 0000.0001) ># Urelaxobcsbound=43200.E0,
(PID.TID 0000.0001) >#
(PID.TID 0000.0001) ># Vrelaxobcsinner=2629800.E0,
(PID.TID 0000.0001) ># Vrelaxobcsbound=43200.E0,
(PID.TID 0000.0001) >#
(PID.TID 0000.0001) ># spongeThickness=16,
(PID.TID 0000.0001) > &
(PID.TID 0000.0001) 
(PID.TID 0000.0001)  OBCS_READPARMS: finished reading data.obcs
(PID.TID 0000.0001)  OB_indexUnset = /* unset OB index value (i.e. no OB) */
(PID.TID 0000.0001)                       0
(PID.TID 0000.0001)     ;
(PID.TID 0000.0001)  Northern OB global indices : OB_Jnorth =
(PID.TID 0000.0001)  2160 @      537                            /* I =  1:*** */
(PID.TID 0000.0001)  Southern OB global indices : OB_Jsouth =
(PID.TID 0000.0001)  2160 @        8                            /* I =  1:*** */
(PID.TID 0000.0001)  Eastern  OB global indices : OB_Ieast =
(PID.TID 0000.0001)   540 @        0                            /* J =  1:540 */
(PID.TID 0000.0001)  Western  OB global indices : OB_Iwest =
(PID.TID 0000.0001)   540 @        0                            /* J =  1:540 */
(PID.TID 0000.0001) 
(PID.TID 0000.0001)  KPP_READPARMS: opening data.kpp
(PID.TID 0000.0001)  OPEN_COPY_DATA_FILE: opening file data.kpp
(PID.TID 0000.0001) // =======================================================
(PID.TID 0000.0001) // Parameter file "data.kpp"
(PID.TID 0000.0001) // =======================================================
(PID.TID 0000.0001) ># KPP parameters
(PID.TID 0000.0001) > &KPP_PARM01
(PID.TID 0000.0001) >### KPPmixingMaps   = .FALSE.,
(PID.TID 0000.0001) >### KPPwriteState   = .FALSE.,
(PID.TID 0000.0001) >### kpp_dumpFreq    = 0.,
(PID.TID 0000.0001) >### kpp_tavefreq    = 0.,
(PID.TID 0000.0001) >### Ricr            = 0.3559,
(PID.TID 0000.0001) >### Riinfty         = 0.6998,
(PID.TID 0000.0001) > &
(PID.TID 0000.0001) 
(PID.TID 0000.0001)  KPP_READPARMS ; starts to read KPP_PARM01
(PID.TID 0000.0001)  KPP_READPARMS ; read KPP_PARM01 : OK
(PID.TID 0000.0001)  KPP_READPARMS: finished reading data.kpp
(PID.TID 0000.0001)  DIAGNOSTICS_READPARMS: opening data.diagnostics
(PID.TID 0000.0001)  OPEN_COPY_DATA_FILE: opening file data.diagnostics
(PID.TID 0000.0001) // =======================================================
(PID.TID 0000.0001) // Parameter file "data.diagnostics"
(PID.TID 0000.0001) // =======================================================
(PID.TID 0000.0001) ># Diagnostic Package Choices
(PID.TID 0000.0001) >#-----------------
(PID.TID 0000.0001) ># for each output-stream:
(PID.TID 0000.0001) >#  filename(n) : prefix of the output file name (only 8.c long) for outp.stream n
(PID.TID 0000.0001) >#  frequency(n):< 0 : write snap-shot output every multiple of |frequency| (iter)
(PID.TID 0000.0001) >#               > 0 : write time-average output every multiple of frequency (iter)
(PID.TID 0000.0001) >#  levels(:,n) : list of levels to write to file (Notes: declared as REAL)
(PID.TID 0000.0001) >#                 when this entry is missing, select all common levels of this list
(PID.TID 0000.0001) >#  fields(:,n) : list of diagnostics fields (8.c) (see "available_diagnostics" file
(PID.TID 0000.0001) >#                 for the list of all available diag. in this particular config)
(PID.TID 0000.0001) >#--------------------------------------------------------------------
(PID.TID 0000.0001) >#
(PID.TID 0000.0001) > &diagnostics_list
(PID.TID 0000.0001) >#
(PID.TID 0000.0001) >   dumpatlast = .TRUE.,
(PID.TID 0000.0001) >#
(PID.TID 0000.0001) >#---
(PID.TID 0000.0001) >  frequency(1) = 3600.0,
(PID.TID 0000.0001) >   fields(1:5,1) = 'ETAN', 'oceTAUX', 'oceTAUY', 'EXFuwind', 'EXFvwind',
(PID.TID 0000.0001) >   filename(1) = 'diags/surface',
(PID.TID 0000.0001) >#---
(PID.TID 0000.0001) >  frequency(2) = 2592000.0,
(PID.TID 0000.0001) >   fields(1:9,2)='THETA','SALT','UVEL','VVEL','WVEL','UVELSQ','VVELSQ','WTHMASS','WSLTMASS',
(PID.TID 0000.0001) >   filename(2) = 'diags/interior',
(PID.TID 0000.0001) >#   levels(1:55,2) =  1., 2., 3., 4., 5., 6., 7., 8., 9.,10.,11.,13.,15.,
(PID.TID 0000.0001) >#                     17.,19.,21.,23.,25.,27.,29.,31.,33.,35.,37.,39.,41.,43.,45.,
(PID.TID 0000.0001) >#                     47.,49.,51.,53.,55.,57.,59.,61.,63.,65.,67.,69.,71.,73.,75.,
(PID.TID 0000.0001) >#                     77.,79.,81.,83.,85.,87.,89.,91.,93.,95.,97.,99.,
(PID.TID 0000.0001) > /
(PID.TID 0000.0001) >#
(PID.TID 0000.0001) >#
(PID.TID 0000.0001) ># Parameter for Diagnostics of per level statistics:
(PID.TID 0000.0001) >#-----------------
(PID.TID 0000.0001) ># for each output-stream:
(PID.TID 0000.0001) >#  stat_fname(n) : prefix of the output file name (only 8.c long) for outp.stream n
(PID.TID 0000.0001) >#  stat_freq(n):< 0 : write snap-shot output every |stat_freq| seconds
(PID.TID 0000.0001) >#               > 0 : write time-average output every stat_freq seconds
(PID.TID 0000.0001) >#  stat_phase(n)    : write at time = stat_phase + multiple of |stat_freq|
(PID.TID 0000.0001) >#  stat_region(:,n) : list of "regions" (default: 1 region only=global)
(PID.TID 0000.0001) >#  stat_fields(:,n) : list of diagnostics fields (8.c) (see "available_diagnostics.log"
(PID.TID 0000.0001) >#                 file for the list of all available diag. in this particular config)
(PID.TID 0000.0001) >#-----------------
(PID.TID 0000.0001) > &DIAG_STATIS_PARMS
(PID.TID 0000.0001) ># diagSt_regMaskFile='basin_masks_eccollc_90x50.bin',
(PID.TID 0000.0001) ># nSetRegMskFile=1,
(PID.TID 0000.0001) ># set_regMask(1)= 1,  1,  1,  1,  1,  1,  1,  1,  1,
(PID.TID 0000.0001) >#                 1,  1,  1,  1,  1,  1,  1,  1
(PID.TID 0000.0001) ># val_regMask(1)= 1., 2., 3., 4., 5., 6., 7., 8., 9.,
(PID.TID 0000.0001) >#                10.,11.,12.,13.,14.,15.,16.,17.
(PID.TID 0000.0001) >##---
(PID.TID 0000.0001) ># stat_fields(1,1)= 'ETAN    ','ETANSQ  ','DETADT2 ',
(PID.TID 0000.0001) >#                   'UVEL    ','VVEL    ','WVEL    ',
(PID.TID 0000.0001) >#                   'THETA   ','SALT    ',
(PID.TID 0000.0001) >#    stat_fname(1)= 'dynStDiag',
(PID.TID 0000.0001) >#     stat_freq(1)= 3153600.,
(PID.TID 0000.0001) ># stat_region(1,1)=  1, 2, 3, 4, 5, 6, 7, 8, 9,
(PID.TID 0000.0001) >#                   10,11,12,13,14,15,16,17
(PID.TID 0000.0001) >##---
(PID.TID 0000.0001) ># stat_fields(1,2)= 'oceTAUX ','oceTAUY ',
(PID.TID 0000.0001) >#                   'surForcT','surForcS','TFLUX   ','SFLUX   ',
(PID.TID 0000.0001) >#                   'oceQnet ','oceSflux','oceFWflx',
(PID.TID 0000.0001) >#    stat_fname(2)= 'surfStDiag',
(PID.TID 0000.0001) >#     stat_freq(2)= 3153600.,
(PID.TID 0000.0001) ># stat_region(1,2)=  1, 2, 3, 4, 5, 6, 7, 8, 9,
(PID.TID 0000.0001) >#                   10,11,12,13,14,15,16,17
(PID.TID 0000.0001) > /
(PID.TID 0000.0001) 
(PID.TID 0000.0001) S/R DIAGNOSTICS_READPARMS, read namelist "diagnostics_list": start
(PID.TID 0000.0001) S/R DIAGNOSTICS_READPARMS, read namelist "diagnostics_list": OK
(PID.TID 0000.0001) S/R DIAGNOSTICS_READPARMS, read namelist "DIAG_STATIS_PARMS": start
(PID.TID 0000.0001) S/R DIAGNOSTICS_READPARMS, read namelist "DIAG_STATIS_PARMS": OK
(PID.TID 0000.0001)  DIAGNOSTICS_READPARMS: global parameter summary:
(PID.TID 0000.0001)  dumpAtLast = /* always write time-ave diags at the end */
(PID.TID 0000.0001)                   T
(PID.TID 0000.0001)     ;
(PID.TID 0000.0001)  diag_mnc =   /* write NetCDF output files */
(PID.TID 0000.0001)                   F
(PID.TID 0000.0001)     ;
(PID.TID 0000.0001)  useMissingValue = /* put MissingValue where mask = 0 */
(PID.TID 0000.0001)                   F
(PID.TID 0000.0001)     ;
(PID.TID 0000.0001)  diagCG_maxIters = /* max number of iters in diag_cg2d */
(PID.TID 0000.0001)                    1000
(PID.TID 0000.0001)     ;
(PID.TID 0000.0001)  diagCG_resTarget = /* residual target for diag_cg2d */
(PID.TID 0000.0001)                 1.000000000000000E-07
(PID.TID 0000.0001)     ;
(PID.TID 0000.0001)  diagCG_pcOffDFac = /* preconditioner off-diagonal factor */
(PID.TID 0000.0001)                 9.611687812379854E-01
(PID.TID 0000.0001)     ;
(PID.TID 0000.0001) -----------------------------------------------------
(PID.TID 0000.0001)  DIAGNOSTICS_READPARMS: active diagnostics summary:
(PID.TID 0000.0001) -----------------------------------------------------
(PID.TID 0000.0001) Creating Output Stream: diags/surface
(PID.TID 0000.0001) Output Frequency:       3600.000000 ; Phase:           0.000000
(PID.TID 0000.0001)  Averaging Freq.:       3600.000000 , Phase:           0.000000 , Cycle:   1
(PID.TID 0000.0001)  missing value: -9.990000000000E+02
(PID.TID 0000.0001)  Levels:    will be set later
(PID.TID 0000.0001)  Fields:    ETAN     oceTAUX  oceTAUY  EXFuwind EXFvwind
(PID.TID 0000.0001) Creating Output Stream: diags/interior
(PID.TID 0000.0001) Output Frequency:    2592000.000000 ; Phase:           0.000000
(PID.TID 0000.0001)  Averaging Freq.:    2592000.000000 , Phase:           0.000000 , Cycle:   1
(PID.TID 0000.0001)  missing value: -9.990000000000E+02
(PID.TID 0000.0001)  Levels:    will be set later
(PID.TID 0000.0001)  Fields:    THETA    SALT     UVEL     VVEL     WVEL     UVELSQ   VVELSQ   WTHMASS  WSLTMASS
(PID.TID 0000.0001) -----------------------------------------------------
(PID.TID 0000.0001)  DIAGNOSTICS_READPARMS: statistics diags. summary:
(PID.TID 0000.0001) -----------------------------------------------------
(PID.TID 0000.0001) 
(PID.TID 0000.0001) SET_PARMS: done
(PID.TID 0000.0001)  MDS_READVEC_LOC: open file: delYFile
(PID.TID 0000.0001) S/R LOAD_GRID_SPACING: delY loaded from file: delYFile
(PID.TID 0000.0001) Enter INI_VERTICAL_GRID: setInterFDr=    T ; setCenterDr=    F
(PID.TID 0000.0001) %MON XC_max                       =   6.9791666666678E+00
(PID.TID 0000.0001) %MON XC_min                       =  -8.2979166666667E+01
(PID.TID 0000.0001) %MON XC_mean                      =  -3.8000000000000E+01
(PID.TID 0000.0001) %MON XC_sd                        =   2.5980759329244E+01
(PID.TID 0000.0001) %MON XG_max                       =   6.9583333333345E+00
(PID.TID 0000.0001) %MON XG_min                       =  -8.3000000000000E+01
(PID.TID 0000.0001) %MON XG_mean                      =  -3.8020833333333E+01
(PID.TID 0000.0001) %MON XG_sd                        =   2.5980759329244E+01
(PID.TID 0000.0001) %MON DXC_max                      =   4.1396408443605E+03
(PID.TID 0000.0001) %MON DXC_min                      =   3.3595207907282E+03
(PID.TID 0000.0001) %MON DXC_mean                     =   3.7639154747743E+03
(PID.TID 0000.0001) %MON DXC_sd                       =   2.2707285978599E+02
(PID.TID 0000.0001) %MON DXF_max                      =   4.1396408443605E+03
(PID.TID 0000.0001) %MON DXF_min                      =   3.3595207907282E+03
(PID.TID 0000.0001) %MON DXF_mean                     =   3.7639154747743E+03
(PID.TID 0000.0001) %MON DXF_sd                       =   2.2707285978599E+02
(PID.TID 0000.0001) %MON DXG_max                      =   4.1402617210449E+03
(PID.TID 0000.0001) %MON DXG_min                      =   3.3603032053391E+03
(PID.TID 0000.0001) %MON DXG_mean                     =   3.7646389662878E+03
(PID.TID 0000.0001) %MON DXG_sd                       =   2.2702689694182E+02
(PID.TID 0000.0001) %MON DXV_max                      =   4.1402617210449E+03
(PID.TID 0000.0001) %MON DXV_min                      =   3.3603032053391E+03
(PID.TID 0000.0001) %MON DXV_mean                     =   3.7646389662878E+03
(PID.TID 0000.0001) %MON DXV_sd                       =   2.2702689694182E+02
(PID.TID 0000.0001) %MON YC_max                       =   4.3512569427490E+01
(PID.TID 0000.0001) %MON YC_min                       =   2.6667170524597E+01
(PID.TID 0000.0001) %MON YC_mean                      =   3.5365724839105E+01
(PID.TID 0000.0001) %MON YC_sd                        =   4.8759077938983E+00
(PID.TID 0000.0001) %MON YG_max                       =   4.3498512268066E+01
(PID.TID 0000.0001) %MON YG_min                       =   2.6650054931641E+01
(PID.TID 0000.0001) %MON YG_mean                      =   3.5350098383868E+01
(PID.TID 0000.0001) %MON YG_sd                        =   4.8767967628688E+00
(PID.TID 0000.0001) %MON DYC_max                      =   3.8052066241563E+03
(PID.TID 0000.0001) %MON DYC_min                      =   3.1263150971014E+03
(PID.TID 0000.0001) %MON DYC_mean                     =   3.4746196212554E+03
(PID.TID 0000.0001) %MON DYC_sd                       =   1.9733005957431E+02
(PID.TID 0000.0001) %MON DYF_max                      =   3.8057367596608E+03
(PID.TID 0000.0001) %MON DYF_min                      =   3.1256789344960E+03
(PID.TID 0000.0001) %MON DYF_mean                     =   3.4746196212554E+03
(PID.TID 0000.0001) %MON DYF_sd                       =   1.9787288708661E+02
(PID.TID 0000.0001) %MON DYG_max                      =   3.8057367596608E+03
(PID.TID 0000.0001) %MON DYG_min                      =   3.1256789344960E+03
(PID.TID 0000.0001) %MON DYG_mean                     =   3.4746196212554E+03
(PID.TID 0000.0001) %MON DYG_sd                       =   1.9787288708661E+02
(PID.TID 0000.0001) %MON DYU_max                      =   3.8052066241563E+03
(PID.TID 0000.0001) %MON DYU_min                      =   3.1263150971014E+03
(PID.TID 0000.0001) %MON DYU_mean                     =   3.4746196212554E+03
(PID.TID 0000.0001) %MON DYU_sd                       =   1.9733005957431E+02
(PID.TID 0000.0001) %MON RA_max                       =   1.5754383098869E+07
(PID.TID 0000.0001) %MON RA_min                       =   1.0500783260236E+07
(PID.TID 0000.0001) %MON RA_mean                      =   1.3123104411967E+07
(PID.TID 0000.0001) %MON RA_sd                        =   1.5313828268276E+06
(PID.TID 0000.0001) %MON RAW_max                      =   1.5754383098869E+07
(PID.TID 0000.0001) %MON RAW_min                      =   1.0500783260236E+07
(PID.TID 0000.0001) %MON RAW_mean                     =   1.3123104411967E+07
(PID.TID 0000.0001) %MON RAW_sd                       =   1.5313828268276E+06
(PID.TID 0000.0001) %MON RAS_max                      =   1.5749824888079E+07
(PID.TID 0000.0001) %MON RAS_min                      =   1.0505367034035E+07
(PID.TID 0000.0001) %MON RAS_mean                     =   1.3125365861136E+07
(PID.TID 0000.0001) %MON RAS_sd                       =   1.5281062334216E+06
(PID.TID 0000.0001) %MON RAZ_max                      =   1.5749824888079E+07
(PID.TID 0000.0001) %MON RAZ_min                      =   1.0505367034035E+07
(PID.TID 0000.0001) %MON RAZ_mean                     =   1.3125365861136E+07
(PID.TID 0000.0001) %MON RAZ_sd                       =   1.5281062334216E+06
(PID.TID 0000.0001) %MON AngleCS_max                  =   1.0000000000000E+00
(PID.TID 0000.0001) %MON AngleCS_min                  =   1.0000000000000E+00
(PID.TID 0000.0001) %MON AngleCS_mean                 =   1.0000000000000E+00
(PID.TID 0000.0001) %MON AngleCS_sd                   =   0.0000000000000E+00
(PID.TID 0000.0001) %MON AngleSN_max                  =   0.0000000000000E+00
(PID.TID 0000.0001) %MON AngleSN_min                  =   0.0000000000000E+00
(PID.TID 0000.0001) %MON AngleSN_mean                 =   0.0000000000000E+00
(PID.TID 0000.0001) %MON AngleSN_sd                   =   0.0000000000000E+00
(PID.TID 0000.0001)  MDS_READ_FIELD: opening global file: bathy.bin
(PID.TID 0000.0001) // =======================================================
(PID.TID 0000.0001) // Field Model R_low (ini_masks_etc)
(PID.TID 0000.0001) // CMIN =         -8.535130615234375E+02
(PID.TID 0000.0001) // CMAX =         -5.000000000000000E+00
(PID.TID 0000.0001) // CINT =          3.142640968605324E+01
(PID.TID 0000.0001) // SYMBOLS (CMIN->CMAX): -abcdefghijklmnopqrstuvwxyz+
(PID.TID 0000.0001) //                  0.0: .
(PID.TID 0000.0001) // RANGE I (Lo:Hi:Step):(    -3:    94:     1)
(PID.TID 0000.0001) // RANGE J (Lo:Hi:Step):(    94:    -3:    -1)
(PID.TID 0000.0001) // RANGE K (Lo:Hi:Step):(   1:   1:   1)
(PID.TID 0000.0001) // =======================================================
(PID.TID 0000.0001) K =   1
(PID.TID 0000.0001) //                I=6       I=16      I=26      I=36      I=46      I=56      I=66      I=76      I=86
(PID.TID 0000.0001) // |--J--|321012345|789012345|789012345|789012345|789012345|789012345|789012345|789012345|789012345|78901234
(PID.TID 0000.0001) //     94 ..............................................+++++++zzzzzzzzzzzzzzzzyvrpnlkjhfecbbbbbbbbbbbbbbbbb
(PID.TID 0000.0001) //     93 ..............................................++++++++zzzzzzzzzzzzzzzyvronlkjhfecbbbbbbbbbbbbbbbbb
(PID.TID 0000.0001) //     92 ..............................................+++++++zzzzzzzzzzzzzzzzywronlkjhfedcbbbbbbbbbbbbbbbb
(PID.TID 0000.0001) //     91 ..............................................+++++++zzzzzzzzzzzzzzzzywrpnlkjhfeedbbbbbbbbbbbbbbbb
(PID.TID 0000.0001) //     90 ...............................................+++++++zzzzzzzzzzzzzzzywspnlkihfeedcbbbbbbbbbbbbbbb
(PID.TID 0000.0001) //     89 ...............................................++++++++zzzzzzzzzzzzzzyxspnlkigeeedcbbbbbbbbbbbbbbb
(PID.TID 0000.0001) //     88 ...............................................+++++++++zzzzzzzzzzzzzyxtpnmkjgeeedcbbbbbbbbbbbbbbb
(PID.TID 0000.0001) //     87 ................................................+++++++zzzzzzzzzzzzzzyxupnmkjheeedcbbbbbbbbbbbbbbb
(PID.TID 0000.0001) //     86 ................................................++++++++++++zzzzzzzzzyxvpnmljheeedcbbbbbbbbbbbbbbb
(PID.TID 0000.0001) //     85 .................................................+++z++z++++zzzzzzzzzyxwqnmljheeeddbbbbbbbbbbbbbbb
(PID.TID 0000.0001) //     84 .................................................+++++zzzzzzzzzzzzzzzyywrnmljhfeeddcbbbbbbbbbbbbbb
(PID.TID 0000.0001) //     83 .................................................++++++zzzzzzzzzzzzzzyywtnmljifeeedcbbbbbbbbbbbbbb
(PID.TID 0000.0001) //     82 ..................................................++++++zzzzzzzzzzzzzyyxuomljigeeedcbbbbbbbbbbbbbb
(PID.TID 0000.0001) //     81 ..................................................+++++++zzzzzzzzzzzzyyxvpmkkigeeddccbbbbbbbbbbbbb
(PID.TID 0000.0001) //     80 ..................................................+++++++zzzzzzzzzzzzyyxvrnlkjgeeddccbbbbbbbbbbbbb
(PID.TID 0000.0001) //     79 ...................................................+++++zzzzzzzzzzzzzyyxwtpnmkheeddccbbbbbbbbbbbbb
(PID.TID 0000.0001) //     78 ...................................................++++++zzzzzzzzzzzzzyywurpnlhfeddccbbbbbbbbbbbbb
(PID.TID 0000.0001) //     77 ....................................................++++zzzzzzzzzzzzzzyywvspnkifeddccbbbbbbbbbbbbb
(PID.TID 0000.0001) //     76 ....................................................+++++zzzzzzzzzzzzzyyxvsomkifeddccbbbbbbbbbbbbb
(PID.TID 0000.0001) //     75 ....................................................++++++zzzzzzzzzzzzyyxvsomkifeddcccbbbbbbbbbbbb
(PID.TID 0000.0001) //     74 .....................................................++++++zzzzzzzzzzzyyxwtpmkifeddcccbbbbbbbbbbbb
(PID.TID 0000.0001) //     73 .....................................................++++++zzzzzzzzzzzyyywuqnligedddccbbbbbbbbbbbb
(PID.TID 0000.0001) //     72 ......................................................+++++++zzzzzzzzzzyywuroljhfeddccbbbbbbbbbbbb
(PID.TID 0000.0001) //     71 ......................................................+++++++++zzzzzzzzyyxvspmkhfeddccbbbbbbbbbbbb
(PID.TID 0000.0001) //     70 .......................................................++++++++z+zzzzzzyyxvtqnligeddcccbbbbbbbbbbb
(PID.TID 0000.0001) //     69 .......................................................+++++++++zzzzzzzyyxvtromjgeddccbbbbbbbbbbbb
(PID.TID 0000.0001) //     68 ........................................................+++++++++zzzzzzyyxwurpnkhfdcccbbbbbbbbbbbb
(PID.TID 0000.0001) //     67 .........................................................+++++z++zzzzzzyyxwusqolifdbcbbbbbbbbbabbb
(PID.TID 0000.0001) //     66 .........................................................+++++z++zzzzzzzyywusqomjgecbbbbbbbbbaaaab
(PID.TID 0000.0001) //     65 .........................................................++++++++zzzzzzzyywvtrpnkhecbbbaabbaaaaaaa
(PID.TID 0000.0001) //     64 ..........................................................++++++++zzzzzzyyxvtrpnlhfccbbbabbaaaaaaa
(PID.TID 0000.0001) //     63 ..........................................................++++++++zzzzzzyyxvtrpnlifccbbbabaaaaaaaa
(PID.TID 0000.0001) //     62 ...........................................................+++++++zzzzzzyyxvurpoljgccbbbbaaaaaaaaa
(PID.TID 0000.0001) //     61 ............................................................+++++++zzzzzyyxwusqomkgdcbbbaaaaaaaaaa
(PID.TID 0000.0001) //     60 .............................................................++++++zzzzzyyxwusqomkhdcbbbaaaaaaaaaa
(PID.TID 0000.0001) //     59 .............................................................++++++zzzzzyyywusqonliecbbbaaaaaaaaaa
(PID.TID 0000.0001) //     58 ..............................................................++++++zzzzyyyxvtrpnljfcbbbaaaaaaa-aa
(PID.TID 0000.0001) //     57 ..............................................................++++++zzzzzyyxvtrpnljgcbbbaaaaaaa-aa
(PID.TID 0000.0001) //     56 ..............................................................++++++zzzzzyyxvtrpnljgdbbbbaaaaaa-a-
(PID.TID 0000.0001) //     55 ...............................................................++++zzzzzzyyxvusqnljgdbbbbbaaaaa---
(PID.TID 0000.0001) //     54 ...............................................................++++zzzzzzyyxwusqomkhdbbbbbaaaaaa--
(PID.TID 0000.0001) //     53 ...............................................................+++++zzzzzyyywusqomkhdbbbbbbaaaaa--
(PID.TID 0000.0001) //     52 ............................................................++++++++zzzzzyyywusqomkidbbbbbbbaaaa--
(PID.TID 0000.0001) //     51 ............................................................++++++++zzzzzyyywutqpnliebabbbbbbaaa--
(PID.TID 0000.0001) //     50 .............................................................+++++++zzzzzzyywvtrpnlifcabbbbbbaaaa-
(PID.TID 0000.0001) //     49 .............................................................++++++++zzzzzyyxvtrpnljfcabbccbbaaa--
(PID.TID 0000.0001) //     48 ............................................................+++++++++zzzzzyyxvtrpnljfcbbbcccbbaa--
(PID.TID 0000.0001) //     47 ............................................................+++++++++zzzzzyyxvtrpnmjfcbbcccccbaaa-
(PID.TID 0000.0001) //     46 ............................................................+++++++++zzzzzyyxvusqnmjgcbbccdcccbaaa
(PID.TID 0000.0001) //     45 .............................................................++++++zzzzzzzzyxvusqnljfcbbccddccbbaa
(PID.TID 0000.0001) //     44 ..............................................................+++++zzzzzzzzyxwusqnmjgcbbcddddccbaa
(PID.TID 0000.0001) //     43 ..............................................................++++z+zzzzzzzyxwusqnmkgcbbcdedddcbba
(PID.TID 0000.0001) //     42 ..............................................................++++z+zzzzzzzyxwusqomkgcbbcdeeeddcbb
(PID.TID 0000.0001) //     41 ...............................................................+++++zzzzzzzyxwusqomjgcbbcdeeeeddcb
(PID.TID 0000.0001) //     40 ...............................................................++++++zzzzzzyxwusqomkgdbbcdeeeeeddb
(PID.TID 0000.0001) //     39 ................................................................++++++zzzzzyxwusqomkhdbbcdeeffeedc
(PID.TID 0000.0001) //     38 ................................................................+++++++zzzzyxwutqomkhdbbcdefffffed
(PID.TID 0000.0001) //     37 .................................................................++++++zzzzyywutqomkhdbbceefgggffe
(PID.TID 0000.0001) //     36 .................................................................++++++zzzzyxwusqomkhdcbceffghggff
(PID.TID 0000.0001) //     35 .................................................................+++++++zzzyywusqomkhdccdefghhhhgg
(PID.TID 0000.0001) //     34 ..................................................................++++++zzzyywusqomkhddcdefghhihhh
(PID.TID 0000.0001) //     33 ..................................................................++++++zzzzywusqomkhddddefghiiiih
(PID.TID 0000.0001) //     32 ...................................................................+++++zzzyywusqomkheddeefgiijjji
(PID.TID 0000.0001) //     31 ...................................................................++++++zzyywusqomkieddeefhijkkkj
(PID.TID 0000.0001) //     30 ...................................................................+++++zzzzywusqomkieddeefhijkllk
(PID.TID 0000.0001) //     29 ....................................................................+++++zzzywusqomkieddeefhiklmmm
(PID.TID 0000.0001) //     28 ....................................................................+++++zzzywusqomkheddeefhjkmnon
(PID.TID 0000.0001) //     27 ....................................................................+++++zzzywusqomkheddeeghjlmopp
(PID.TID 0000.0001) //     26 .....................................................................++++zzzywusqomkheddeeghjkmoqq
(PID.TID 0000.0001) //     25 ....................................................................+++++zzzxwusqomkhdcddefhiknprr
(PID.TID 0000.0001) //     24 ....................................................................++++++zzywusqomkhdcddeghiknqss
(PID.TID 0000.0001) //     23 .....................................................................+++++zzywusqomkhcddefghiknqux
(PID.TID 0000.0001) //     22 .....................................................................+++++zzywusqomjhdcddefhilnrzz
(PID.TID 0000.0001) //     21 ......................................................................++++zzywusqomjhdddeefhiknrzz
(PID.TID 0000.0001) //     20 ......................................................................++++zzywusqomjgdddefghilnszz
(PID.TID 0000.0001) //     19 .......................................................................+++zzywusqomjgddddefgiknsyz
(PID.TID 0000.0001) //     18 .......................................................................+++zzywurqomkgddddefgijntyz
(PID.TID 0000.0001) //     17 ........................................................................++zzywtrpomkhddddefghjmtxy
(PID.TID 0000.0001) //     16 ........................................................................+++zywurpomkhdcddefghjmuwy
(PID.TID 0000.0001) //     15 .........................................................................++zxwtrpomkhdcccdfghjnvwx
(PID.TID 0000.0001) //     14 .........................................................................++zxwurpnmkhecccdfghjmuwx
(PID.TID 0000.0001) //     13 .........................................................................++zxwtrpnmkhecccdfghiltwx
(PID.TID 0000.0001) //     12 ..........................................................................+zxwurpnlkiecccdfggikqxx
(PID.TID 0000.0001) //     11 ..........................................................................++yvtrpnljhfdccdefghjmvw
(PID.TID 0000.0001) //     10 ..........................................................................++yvtrpnljhecccdefghjlru
(PID.TID 0000.0001) //      9 ..........................................................................++yvtrpnljhedccdeffgikos
(PID.TID 0000.0001) //      8 ..........................................................................++yvtrpnligedccdfffgiknr
(PID.TID 0000.0001) //      7 ..................................................................................................
(PID.TID 0000.0001) //      6 ..................................................................................................
(PID.TID 0000.0001) //      5 ..................................................................................................
(PID.TID 0000.0001) //      4 ..................................................................................................
(PID.TID 0000.0001) //      3 ..................................................................................................
(PID.TID 0000.0001) //      2 ..................................................................................................
(PID.TID 0000.0001) //      1 ..................................................................................................
(PID.TID 0000.0001) //      0 ..................................................................................................
(PID.TID 0000.0001) //     -1 ..................................................................................................
(PID.TID 0000.0001) //     -2 ..................................................................................................
(PID.TID 0000.0001) //     -3 ..................................................................................................
(PID.TID 0000.0001) // =======================================================
(PID.TID 0000.0001) // END OF FIELD                                          =
(PID.TID 0000.0001) // =======================================================
(PID.TID 0000.0001) 
(PID.TID 0000.0001) // =======================================================
(PID.TID 0000.0001) // Field Model Ro_surf (ini_masks_etc)
(PID.TID 0000.0001) // CMIN =          1.000000000000000E+32
(PID.TID 0000.0001) // CMAX =         -1.000000000000000E+32
(PID.TID 0000.0001) // CINT =          0.000000000000000E+00
(PID.TID 0000.0001) // SYMBOLS (CMIN->CMAX): -abcdefghijklmnopqrstuvwxyz+
(PID.TID 0000.0001) //                  0.0: .
(PID.TID 0000.0001) // RANGE I (Lo:Hi:Step):(    -3:    94:     1)
(PID.TID 0000.0001) // RANGE J (Lo:Hi:Step):(    94:    -3:    -1)
(PID.TID 0000.0001) // RANGE K (Lo:Hi:Step):(   1:   1:   1)
(PID.TID 0000.0001) // =======================================================
(PID.TID 0000.0001) // =======================================================
(PID.TID 0000.0001) // END OF FIELD                                          =
(PID.TID 0000.0001) // =======================================================
(PID.TID 0000.0001) 
(PID.TID 0000.0001) // =======================================================
(PID.TID 0000.0001) // Field hFacC at iteration          0
(PID.TID 0000.0001) // CMIN =          1.000000000000000E+00
(PID.TID 0000.0001) // CMAX =          1.000000000000000E+00
(PID.TID 0000.0001) // CINT =          0.000000000000000E+00
(PID.TID 0000.0001) // SYMBOLS (CMIN->CMAX): -abcdefghijklmnopqrstuvwxyz+
(PID.TID 0000.0001) //                  0.0: .
(PID.TID 0000.0001) // RANGE I (Lo:Hi:Step):(    -3:    94:     1)
(PID.TID 0000.0001) // RANGE J (Lo:Hi:Step):(    94:    -3:    -1)
(PID.TID 0000.0001) // RANGE K (Lo:Hi:Step):(   1:   1:   1)
(PID.TID 0000.0001) // =======================================================
(PID.TID 0000.0001) // =======================================================
(PID.TID 0000.0001) // END OF FIELD                                          =
(PID.TID 0000.0001) // =======================================================
(PID.TID 0000.0001) 
(PID.TID 0000.0001) // =======================================================
(PID.TID 0000.0001) // Field hFacW at iteration          0
(PID.TID 0000.0001) // CMIN =          1.000000000000000E+00
(PID.TID 0000.0001) // CMAX =          1.000000000000000E+00
(PID.TID 0000.0001) // CINT =          0.000000000000000E+00
(PID.TID 0000.0001) // SYMBOLS (CMIN->CMAX): -abcdefghijklmnopqrstuvwxyz+
(PID.TID 0000.0001) //                  0.0: .
(PID.TID 0000.0001) // RANGE I (Lo:Hi:Step):(    -3:    94:     1)
(PID.TID 0000.0001) // RANGE J (Lo:Hi:Step):(    94:    -3:    -1)
(PID.TID 0000.0001) // RANGE K (Lo:Hi:Step):(   1:   1:   1)
(PID.TID 0000.0001) // =======================================================
(PID.TID 0000.0001) // =======================================================
(PID.TID 0000.0001) // END OF FIELD                                          =
(PID.TID 0000.0001) // =======================================================
(PID.TID 0000.0001) 
(PID.TID 0000.0001) // =======================================================
(PID.TID 0000.0001) // Field hFacS at iteration          0
(PID.TID 0000.0001) // CMIN =          1.000000000000000E+00
(PID.TID 0000.0001) // CMAX =          1.000000000000000E+00
(PID.TID 0000.0001) // CINT =          0.000000000000000E+00
(PID.TID 0000.0001) // SYMBOLS (CMIN->CMAX): -abcdefghijklmnopqrstuvwxyz+
(PID.TID 0000.0001) //                  0.0: .
(PID.TID 0000.0001) // RANGE I (Lo:Hi:Step):(    -3:    94:     1)
(PID.TID 0000.0001) // RANGE J (Lo:Hi:Step):(    94:    -3:    -1)
(PID.TID 0000.0001) // RANGE K (Lo:Hi:Step):(   1:   1:   1)
(PID.TID 0000.0001) // =======================================================
(PID.TID 0000.0001) // =======================================================
(PID.TID 0000.0001) // END OF FIELD                                          =
(PID.TID 0000.0001) // =======================================================
(PID.TID 0000.0001) 
(PID.TID 0000.0001) 
(PID.TID 0000.0001) // =======================================================
(PID.TID 0000.0001) // Calendar configuration >>> START <<<
(PID.TID 0000.0001) // =======================================================
(PID.TID 0000.0001) 
(PID.TID 0000.0001) modelstart = /* Start time of the model integration [s] */
(PID.TID 0000.0001)                 0.000000000000000E+00
(PID.TID 0000.0001)     ;
(PID.TID 0000.0001) modelend  = /* End time of the model integration [s] */
(PID.TID 0000.0001)                 3.600000000000000E+03
(PID.TID 0000.0001)     ;
(PID.TID 0000.0001) modelStep = /* Time interval for a model forward step [s] */
(PID.TID 0000.0001)                 2.400000000000000E+02
(PID.TID 0000.0001)     ;
(PID.TID 0000.0001) usingGregorianCalendar= /* Calendar Type: Gregorian Calendar */
(PID.TID 0000.0001)                   T
(PID.TID 0000.0001)     ;
(PID.TID 0000.0001) usingJulianCalendar = /* Calendar Type: Julian Calendar */
(PID.TID 0000.0001)                   F
(PID.TID 0000.0001)     ;
(PID.TID 0000.0001) usingNoLeapYearCal  = /* Calendar Type: without Leap Year */
(PID.TID 0000.0001)                   F
(PID.TID 0000.0001)     ;
(PID.TID 0000.0001) usingModelCalendar  = /* Calendar Type: Model Calendar */
(PID.TID 0000.0001)                   F
(PID.TID 0000.0001)     ;
(PID.TID 0000.0001) modelStartDate YYYYMMDD = /* Model start date YYYY-MM-DD */
(PID.TID 0000.0001)                20030101
(PID.TID 0000.0001)     ;
(PID.TID 0000.0001)   modelStartDate HHMMSS = /* Model start date HH-MM-SS  */
(PID.TID 0000.0001)                       0
(PID.TID 0000.0001)     ;
(PID.TID 0000.0001) modelEndDate   YYYYMMDD = /* Model end date YYYY-MM-DD */
(PID.TID 0000.0001)                20030101
(PID.TID 0000.0001)     ;
(PID.TID 0000.0001)   modelEndDate   HHMMSS = /* Model end date HH-MM-SS  */
(PID.TID 0000.0001)                   10000
(PID.TID 0000.0001)     ;
(PID.TID 0000.0001) intyears = /* Number of calendar years affected by the integration */
(PID.TID 0000.0001)                       1
(PID.TID 0000.0001)     ;
(PID.TID 0000.0001) intmonths= /* Number of calendar months affected by the integration */
(PID.TID 0000.0001)                       1
(PID.TID 0000.0001)     ;
(PID.TID 0000.0001) intdays = /* Number of calendar days affected by the integration */
(PID.TID 0000.0001)                       1
(PID.TID 0000.0001)     ;
(PID.TID 0000.0001) modelIter0 = /* Base timestep number  */
(PID.TID 0000.0001)                       0
(PID.TID 0000.0001)     ;
(PID.TID 0000.0001) modelIterEnd = /* Final timestep number  */
(PID.TID 0000.0001)                      15
(PID.TID 0000.0001)     ;
(PID.TID 0000.0001) modelIntSteps= /* Number of model timesteps  */
(PID.TID 0000.0001)                      15
(PID.TID 0000.0001)     ;
(PID.TID 0000.0001) 
(PID.TID 0000.0001) // =======================================================
(PID.TID 0000.0001) // Calendar configuration  >>> END <<<
(PID.TID 0000.0001) // =======================================================
(PID.TID 0000.0001) 
(PID.TID 0000.0001) GAD_INIT_FIXED: GAD_OlMinSize=  4  0  1
(PID.TID 0000.0001) 
(PID.TID 0000.0001) // ===================================
(PID.TID 0000.0001) // GAD parameters :
(PID.TID 0000.0001) // ===================================
(PID.TID 0000.0001) tempAdvScheme =   /* Temp. Horiz.Advection scheme selector */
(PID.TID 0000.0001)                       7
(PID.TID 0000.0001)     ;
(PID.TID 0000.0001) tempVertAdvScheme =   /* Temp. Vert. Advection scheme selector */
(PID.TID 0000.0001)                       7
(PID.TID 0000.0001)     ;
(PID.TID 0000.0001) tempMultiDimAdvec =   /* use Muti-Dim Advec method for Temp */
(PID.TID 0000.0001)                   T
(PID.TID 0000.0001)     ;
(PID.TID 0000.0001) tempSOM_Advection = /* use 2nd Order Moment Advection for Temp */
(PID.TID 0000.0001)                   F
(PID.TID 0000.0001)     ;
(PID.TID 0000.0001) AdamsBashforthGt = /* apply Adams-Bashforth extrapolation on Gt */
(PID.TID 0000.0001)                   F
(PID.TID 0000.0001)     ;
(PID.TID 0000.0001) AdamsBashforth_T = /* apply Adams-Bashforth extrapolation on Temp */
(PID.TID 0000.0001)                   F
(PID.TID 0000.0001)     ;
(PID.TID 0000.0001) saltAdvScheme =   /* Salt. Horiz.advection scheme selector */
(PID.TID 0000.0001)                       7
(PID.TID 0000.0001)     ;
(PID.TID 0000.0001) saltVertAdvScheme =   /* Salt. Vert. Advection scheme selector */
(PID.TID 0000.0001)                       7
(PID.TID 0000.0001)     ;
(PID.TID 0000.0001) saltMultiDimAdvec =   /* use Muti-Dim Advec method for Salt */
(PID.TID 0000.0001)                   T
(PID.TID 0000.0001)     ;
(PID.TID 0000.0001) saltSOM_Advection = /* use 2nd Order Moment Advection for Salt */
(PID.TID 0000.0001)                   F
(PID.TID 0000.0001)     ;
(PID.TID 0000.0001) AdamsBashforthGs = /* apply Adams-Bashforth extrapolation on Gs */
(PID.TID 0000.0001)                   F
(PID.TID 0000.0001)     ;
(PID.TID 0000.0001) AdamsBashforth_S = /* apply Adams-Bashforth extrapolation on Salt */
(PID.TID 0000.0001)                   F
(PID.TID 0000.0001)     ;
(PID.TID 0000.0001) // ===================================
(PID.TID 0000.0001) OBCS_INIT_FIXED: Setting OB indices in Overlap
(PID.TID 0000.0001)  Sets OBS(i,bi,bj=   91,  1,  1)=    8
(PID.TID 0000.0001)  Sets OBS(i,bi,bj=   92,  1,  1)=    8
(PID.TID 0000.0001)  Sets OBS(i,bi,bj=   93,  1,  1)=    8
(PID.TID 0000.0001)  Sets OBS(i,bi,bj=   94,  1,  1)=    8
(PID.TID 0000.0001) OBCS_INIT_FIXED: Setting OB indices in Overlap <= done
(PID.TID 0000.0001) 
(PID.TID 0000.0001) // =======================================================
(PID.TID 0000.0001) // External forcing (EXF) configuration >>> START <<<
(PID.TID 0000.0001) // =======================================================
(PID.TID 0000.0001) 
(PID.TID 0000.0001)  EXF general parameters:
(PID.TID 0000.0001) 
(PID.TID 0000.0001) exf_iprec = /* exf file precision */
(PID.TID 0000.0001)                      32
(PID.TID 0000.0001)     ;
(PID.TID 0000.0001) useExfYearlyFields = /* add extension _YEAR to input file names */
(PID.TID 0000.0001)                   T
(PID.TID 0000.0001)     ;
(PID.TID 0000.0001) twoDigitYear = /* use 2-digit year extension */
(PID.TID 0000.0001)                   F
(PID.TID 0000.0001)     ;
(PID.TID 0000.0001) useExfCheckRange = /* check for fields range */
(PID.TID 0000.0001)                   F
(PID.TID 0000.0001)     ;
(PID.TID 0000.0001) exf_output_interp = /* output directly interpolation result */
(PID.TID 0000.0001)                   F
(PID.TID 0000.0001)     ;
(PID.TID 0000.0001) exf_debugLev = /* select EXF-debug printing level */
(PID.TID 0000.0001)                       2
(PID.TID 0000.0001)     ;
(PID.TID 0000.0001) exf_monFreq  = /* EXF monitor frequency [ s ] */
(PID.TID 0000.0001)                 2.400000000000000E+02
(PID.TID 0000.0001)     ;
(PID.TID 0000.0001) repeatPeriod = /* period for cycling forcing dataset [ s ] */
(PID.TID 0000.0001)                 0.000000000000000E+00
(PID.TID 0000.0001)     ;
(PID.TID 0000.0001) climTempFreeze= /* Minimum climatological temperature [deg.C] */
(PID.TID 0000.0001)                -1.900000000000000E+00
(PID.TID 0000.0001)     ;
(PID.TID 0000.0001) windStressMax = /* Maximum absolute windstress [ Pa ] */
(PID.TID 0000.0001)                 2.000000000000000E+00
(PID.TID 0000.0001)     ;
(PID.TID 0000.0001) stressIsOnCgrid = /* set u,v_stress on Arakawa C-grid */
(PID.TID 0000.0001)                   F
(PID.TID 0000.0001)     ;
(PID.TID 0000.0001) rotateStressOnAgrid = /* rotate u,v_stress on Arakawa A-grid */
(PID.TID 0000.0001)                   F
(PID.TID 0000.0001)     ;
(PID.TID 0000.0001) cen2kel = /* conversion of deg. Centigrade to Kelvin [K] */
(PID.TID 0000.0001)                 2.731500000000000E+02
(PID.TID 0000.0001)     ;
(PID.TID 0000.0001) gravity_mks= /* gravitational acceleration [m/s^2] */
(PID.TID 0000.0001)                 9.810000000000000E+00
(PID.TID 0000.0001)     ;
(PID.TID 0000.0001) atmrho =  /* mean atmospheric density [kg/m^3] */
(PID.TID 0000.0001)                 1.200000000000000E+00
(PID.TID 0000.0001)     ;
(PID.TID 0000.0001) atmcp =  /* mean atmospheric specific heat [J/kg/K] */
(PID.TID 0000.0001)                 1.005000000000000E+03
(PID.TID 0000.0001)     ;
(PID.TID 0000.0001) flamb =  /* latent heat of evaporation [J/kg] */
(PID.TID 0000.0001)                 2.500000000000000E+06
(PID.TID 0000.0001)     ;
(PID.TID 0000.0001) flami =  /* latent heat of pure-ice melting [J/kg] */
(PID.TID 0000.0001)                 3.340000000000000E+05
(PID.TID 0000.0001)     ;
(PID.TID 0000.0001) cvapor_fac = /* const. for Saturation calculation [?] */
(PID.TID 0000.0001)                 6.403800000000000E+05
(PID.TID 0000.0001)     ;
(PID.TID 0000.0001) cvapor_exp = /* const. for Saturation calculation [?] */
(PID.TID 0000.0001)                 5.107400000000000E+03
(PID.TID 0000.0001)     ;
(PID.TID 0000.0001) cvapor_fac_ice= /* const. for Saturation calculation [?] */
(PID.TID 0000.0001)                 1.163780000000000E+07
(PID.TID 0000.0001)     ;
(PID.TID 0000.0001) cvapor_exp_ice= /* const. for Saturation calculation [?] */
(PID.TID 0000.0001)                 5.897800000000000E+03
(PID.TID 0000.0001)     ;
(PID.TID 0000.0001) humid_fac = /* humidity coef. in virtual temp. [(kg/kg)^-1] */
(PID.TID 0000.0001)                 6.060000000000000E-01
(PID.TID 0000.0001)     ;
(PID.TID 0000.0001) gamma_blk = /* adiabatic lapse rate [?] */
(PID.TID 0000.0001)                 1.000000000000000E-02
(PID.TID 0000.0001)     ;
(PID.TID 0000.0001) saltsat = /* reduction of Qsat over salty water [-] */
(PID.TID 0000.0001)                 9.800000000000000E-01
(PID.TID 0000.0001)     ;
(PID.TID 0000.0001) noNegativeEvap = /* prevent negative Evaporation */
(PID.TID 0000.0001)                   F
(PID.TID 0000.0001)     ;
(PID.TID 0000.0001) sstExtrapol = /* extrapolation coeff from lev. 1 & 2 to surf [-] */
(PID.TID 0000.0001)                 0.000000000000000E+00
(PID.TID 0000.0001)     ;
(PID.TID 0000.0001) cDrag_1 = /* coef used in drag calculation [?] */
(PID.TID 0000.0001)                 2.700000000000000E-03
(PID.TID 0000.0001)     ;
(PID.TID 0000.0001) cDrag_2 = /* coef used in drag calculation [?] */
(PID.TID 0000.0001)                 1.420000000000000E-04
(PID.TID 0000.0001)     ;
(PID.TID 0000.0001) cDrag_3 = /* coef used in drag calculation [?] */
(PID.TID 0000.0001)                 7.640000000000000E-05
(PID.TID 0000.0001)     ;
(PID.TID 0000.0001) cStanton_1 = /* coef used in Stanton number calculation [?] */
(PID.TID 0000.0001)                 3.270000000000000E-02
(PID.TID 0000.0001)     ;
(PID.TID 0000.0001) cStanton_2 = /* coef used in Stanton number calculation [?] */
(PID.TID 0000.0001)                 1.800000000000000E-02
(PID.TID 0000.0001)     ;
(PID.TID 0000.0001) cDalton = /* coef used in Dalton number calculation [?] */
(PID.TID 0000.0001)                 3.460000000000000E-02
(PID.TID 0000.0001)     ;
(PID.TID 0000.0001) exf_scal_BulkCdn= /* Drag coefficient scaling factor [-] */
(PID.TID 0000.0001)                 9.997000000000000E-01
(PID.TID 0000.0001)     ;
(PID.TID 0000.0001) zolmin = /* minimum stability parameter [?] */
(PID.TID 0000.0001)                -1.000000000000000E+02
(PID.TID 0000.0001)     ;
(PID.TID 0000.0001) psim_fac = /* coef used in turbulent fluxes calculation [-] */
(PID.TID 0000.0001)                 5.000000000000000E+00
(PID.TID 0000.0001)     ;
(PID.TID 0000.0001) zref =  /* reference height [ m ] */
(PID.TID 0000.0001)                 1.000000000000000E+01
(PID.TID 0000.0001)     ;
(PID.TID 0000.0001) hu =  /* height of mean wind [ m ] */
(PID.TID 0000.0001)                 1.000000000000000E+01
(PID.TID 0000.0001)     ;
(PID.TID 0000.0001) ht =  /* height of mean temperature [ m ] */
(PID.TID 0000.0001)                 2.000000000000000E+00
(PID.TID 0000.0001)     ;
(PID.TID 0000.0001) hq =  /* height of mean spec.humidity [ m ] */
(PID.TID 0000.0001)                 2.000000000000000E+00
(PID.TID 0000.0001)     ;
(PID.TID 0000.0001) uMin = /* minimum wind speed [m/s] */
(PID.TID 0000.0001)                 5.000000000000000E-01
(PID.TID 0000.0001)     ;
(PID.TID 0000.0001) useStabilityFct_overIce= /* transfert Coeffs over sea-ice depend on stability */
(PID.TID 0000.0001)                   F
(PID.TID 0000.0001)     ;
(PID.TID 0000.0001) exf_iceCd = /* drag coefficient over sea-ice (fixed) [-] */
(PID.TID 0000.0001)                 1.630000000000000E-03
(PID.TID 0000.0001)     ;
(PID.TID 0000.0001) exf_iceCe = /* transfert coeff. over sea-ice, for Evap (fixed) [-] */
(PID.TID 0000.0001)                 1.630000000000000E-03
(PID.TID 0000.0001)     ;
(PID.TID 0000.0001) exf_iceCh = /* transfert coeff. over sea-ice, Sens.Heat.(fixed)[-] */
(PID.TID 0000.0001)                 1.630000000000000E-03
(PID.TID 0000.0001)     ;
(PID.TID 0000.0001) exf_albedo =  /* Sea-water albedo [-] */
(PID.TID 0000.0001)                 1.000000000000000E-01
(PID.TID 0000.0001)     ;
(PID.TID 0000.0001) useExfZenAlbedo = /* Sea-water albedo varies with zenith angle */
(PID.TID 0000.0001)                   F
(PID.TID 0000.0001)     ;
(PID.TID 0000.0001) select_ZenAlbedo = /* Sea-water albedo computation method */
(PID.TID 0000.0001)                       0
(PID.TID 0000.0001)     ;
(PID.TID 0000.0001) useExfZenIncoming = /* compute incoming solar radiation */
(PID.TID 0000.0001)                   F
(PID.TID 0000.0001)     ;
(PID.TID 0000.0001) ocean_emissivity = /* longwave ocean-surface emissivity [-] */
(PID.TID 0000.0001)                 9.700176366843034E-01
(PID.TID 0000.0001)     ;
(PID.TID 0000.0001) ice_emissivity = /* longwave seaice emissivity [-] */
(PID.TID 0000.0001)                 9.500000000000000E-01
(PID.TID 0000.0001)     ;
(PID.TID 0000.0001) snow_emissivity = /* longwave snow  emissivity [-] */
(PID.TID 0000.0001)                 9.500000000000000E-01
(PID.TID 0000.0001)     ;
(PID.TID 0000.0001) 
(PID.TID 0000.0001)  EXF main CPP flags:
(PID.TID 0000.0001) 
(PID.TID 0000.0001) // USE_EXF_INTERPOLATION:              defined
(PID.TID 0000.0001) // ALLOW_ATM_TEMP:                     defined
(PID.TID 0000.0001) // ALLOW_ATM_WIND (useAtmWind):        defined
(PID.TID 0000.0001) // ALLOW_DOWNWARD_RADIATION:           defined
(PID.TID 0000.0001) // ALLOW_BULKFORMULAE:                 defined
(PID.TID 0000.0001) 
(PID.TID 0000.0001)    Zonal wind forcing starts at                          0.
(PID.TID 0000.0001)    Zonal wind forcing period is                      10800.
(PID.TID 0000.0001)    Zonal wind forcing repeat-cycle is                    0.
(PID.TID 0000.0001)    Zonal wind forcing is read from file:
(PID.TID 0000.0001)    >> jra55/jra55_u10m <<
(PID.TID 0000.0001)    interpolate "uwind" (method= 12 ):
(PID.TID 0000.0001)    lon0=   0.00000, nlon=   640, lon_inc= 0.5625000
(PID.TID 0000.0001)    lat0= -89.57009, nlat=   320, inc(min,max)= 0.55691 0.56162
(PID.TID 0000.0001) 
(PID.TID 0000.0001)    Meridional wind forcing starts at                     0.
(PID.TID 0000.0001)    Meridional wind forcing period is                 10800.
(PID.TID 0000.0001)    Meridional wind forcing repeat-cycle is               0.
(PID.TID 0000.0001)    Meridional wind forcing is read from file:
(PID.TID 0000.0001)    >> jra55/jra55_v10m <<
(PID.TID 0000.0001)    interpolate "vwind" (method= 22 ):
(PID.TID 0000.0001)    lon0=   0.00000, nlon=   640, lon_inc= 0.5625000
(PID.TID 0000.0001)    lat0= -89.57009, nlat=   320, inc(min,max)= 0.55691 0.56162
(PID.TID 0000.0001)     Interp. U & V comp. together: uvInterp_wind =    T
(PID.TID 0000.0001) 
(PID.TID 0000.0001)    Atmospheric temperature starts at                     0.
(PID.TID 0000.0001)    Atmospheric temperature period is                 10800.
(PID.TID 0000.0001)    Atmospheric temperature repeat-cycle is               0.
(PID.TID 0000.0001)    Atmospheric temperature is read from file:
(PID.TID 0000.0001)    >> jra55/jra55_tmp2m_degC <<
(PID.TID 0000.0001)    interpolate "atemp" (method=  1 ):
(PID.TID 0000.0001)    lon0=   0.00000, nlon=   640, lon_inc= 0.5625000
(PID.TID 0000.0001)    lat0= -89.57009, nlat=   320, inc(min,max)= 0.55691 0.56162
(PID.TID 0000.0001) 
(PID.TID 0000.0001)    Atmospheric specific humidity starts at               0.
(PID.TID 0000.0001)    Atmospheric specific humidity period is           10800.
(PID.TID 0000.0001)    Atmospheric specific humidity rep-cycle is            0.
(PID.TID 0000.0001)    Atmospheric specific humidity is read from file:
(PID.TID 0000.0001)    >> jra55/jra55_spfh2m <<
(PID.TID 0000.0001)    interpolate "aqh" (method=  1 ):
(PID.TID 0000.0001)    lon0=   0.00000, nlon=   640, lon_inc= 0.5625000
(PID.TID 0000.0001)    lat0= -89.57009, nlat=   320, inc(min,max)= 0.55691 0.56162
(PID.TID 0000.0001) 
(PID.TID 0000.0001) // ALLOW_READ_TURBFLUXES:          NOT defined
(PID.TID 0000.0001) // EXF_READ_EVAP:                  NOT defined
(PID.TID 0000.0001) 
(PID.TID 0000.0001)    Precipitation data starts at                       5400.
(PID.TID 0000.0001)    Precipitation data period is                      10800.
(PID.TID 0000.0001)    Precipitation data repeat-cycle is                    0.
(PID.TID 0000.0001)    Precipitation data is read from file:
(PID.TID 0000.0001)    >> jra55/jra55_rain <<
(PID.TID 0000.0001)    interpolate "precip" (method=  1 ):
(PID.TID 0000.0001)    lon0=   0.00000, nlon=   640, lon_inc= 0.5625000
(PID.TID 0000.0001)    lat0= -89.57009, nlat=   320, inc(min,max)= 0.55691 0.56162
(PID.TID 0000.0001) 
(PID.TID 0000.0001) // ALLOW_RUNOFF:                       defined
(PID.TID 0000.0001)    Runoff data period is                               -12.
(PID.TID 0000.0001)    Runoff data is read from file:
(PID.TID 0000.0001)    >> runoff1p2472-360x180x12.bin <<
(PID.TID 0000.0001)    interpolate "runoff" (method=  1 ):
(PID.TID 0000.0001)    lon0=   0.50000, nlon=   360, lon_inc= 1.0000000
(PID.TID 0000.0001)    lat0= -89.50000, nlat=   180, lat_inc= 1.0000000
(PID.TID 0000.0001) 
(PID.TID 0000.0001) // ALLOW_RUNOFTEMP:                NOT defined
(PID.TID 0000.0001) // ALLOW_SALTFLX:                      defined
(PID.TID 0000.0001) 
(PID.TID 0000.0001)    Downward shortwave flux starts at                  5400.
(PID.TID 0000.0001)    Downward shortwave flux period is                 10800.
(PID.TID 0000.0001)    Downward shortwave flux repeat-cycle is               0.
(PID.TID 0000.0001)    Downward shortwave flux is read from file:
(PID.TID 0000.0001)    >> jra55/jra55_dsw <<
(PID.TID 0000.0001)    interpolate "swdown" (method=  1 ):
(PID.TID 0000.0001)    lon0=   0.00000, nlon=   640, lon_inc= 0.5625000
(PID.TID 0000.0001)    lat0= -89.57009, nlat=   320, inc(min,max)= 0.55691 0.56162
(PID.TID 0000.0001) 
(PID.TID 0000.0001)    Downward longwave flux starts at                   5400.
(PID.TID 0000.0001)    Downward longwave flux period is                  10800.
(PID.TID 0000.0001)    Downward longwave flux repeat-cycle is                0.
(PID.TID 0000.0001)    Downward longwave flux is read from file:
(PID.TID 0000.0001)    >> jra55/jra55_dlw <<
(PID.TID 0000.0001)    interpolate "lwdown" (method=  1 ):
(PID.TID 0000.0001)    lon0=   0.00000, nlon=   640, lon_inc= 0.5625000
(PID.TID 0000.0001)    lat0= -89.57009, nlat=   320, inc(min,max)= 0.55691 0.56162
(PID.TID 0000.0001) 
(PID.TID 0000.0001)    Atmospheric pressure forcing starts at                0.
(PID.TID 0000.0001)    Atmospheric pressure forcing period is            10800.
(PID.TID 0000.0001)    Atmospheric pressure forcing rep-cycle is             0.
(PID.TID 0000.0001)    Atmospheric pressure forcing is read from file:
(PID.TID 0000.0001)    >> jra55/jra55_pres <<
(PID.TID 0000.0001)    interpolate "apressure" (method=  1 ):
(PID.TID 0000.0001)    lon0=   0.00000, nlon=   640, lon_inc= 0.5625000
(PID.TID 0000.0001)    lat0= -89.57009, nlat=   320, inc(min,max)= 0.55691 0.56162
(PID.TID 0000.0001) 
(PID.TID 0000.0001)    Tidal geopotential starts at                          0.
(PID.TID 0000.0001)    Tidal geopotential period is                       3600.
(PID.TID 0000.0001)    Tidal geopotential repeat-cycle is                    0.
(PID.TID 0000.0001)    Tidal geopotential is read from file:
(PID.TID 0000.0001)    >> tide <<
(PID.TID 0000.0001)    interpolate "tidePot" (method=  1 ):
(PID.TID 0000.0001)    lon0=   0.00000, nlon=   360, lon_inc= 1.0000000
(PID.TID 0000.0001)    lat0= -90.00000, nlat=   181, lat_inc= 1.0000000
(PID.TID 0000.0001) 
(PID.TID 0000.0001) // =======================================================
(PID.TID 0000.0001) // External forcing (EXF) climatology configuration :
(PID.TID 0000.0001) // =======================================================
(PID.TID 0000.0001) 
(PID.TID 0000.0001) // ALLOW_CLIMSST_RELAXATION:       NOT defined
(PID.TID 0000.0001) 
(PID.TID 0000.0001) // ALLOW_CLIMSSS_RELAXATION:       NOT defined
(PID.TID 0000.0001) 
(PID.TID 0000.0001) // =======================================================
(PID.TID 0000.0001) // External forcing (EXF) configuration  >>> END <<<
(PID.TID 0000.0001) // =======================================================
(PID.TID 0000.0001) 
(PID.TID 0000.0001) ------------------------------------------------------------
(PID.TID 0000.0001) DIAGNOSTICS_SET_LEVELS: done
(PID.TID 0000.0001)  Total Nb of available Diagnostics: ndiagt=   213
(PID.TID 0000.0001)  write list of available Diagnostics to file: available_diagnostics.log
(PID.TID 0000.0001) SETDIAG: Allocate  1 x  1 Levels for Diagnostic #    23 ETAN
(PID.TID 0000.0001) SETDIAG: Allocate  1 x  1 Levels for Diagnostic #    80 oceTAUX
(PID.TID 0000.0001) SETDIAG: Allocate  1 x  1 Levels for Diagnostic #    81 oceTAUY
(PID.TID 0000.0001) SETDIAG: Allocate  1 x  1 Levels for Diagnostic #   185 EXFuwind
(PID.TID 0000.0001) SETDIAG: Allocate  1 x  1 Levels for Diagnostic #   186 EXFvwind
(PID.TID 0000.0001) SETDIAG: Allocate100 x  1 Levels for Diagnostic #    26 THETA
(PID.TID 0000.0001) SETDIAG: Allocate100 x  1 Levels for Diagnostic #    27 SALT
(PID.TID 0000.0001) SETDIAG: Allocate100 x  1 Levels for Diagnostic #    30 UVEL
(PID.TID 0000.0001) SETDIAG: Allocate100 x  1 Levels for Diagnostic #    31 VVEL
(PID.TID 0000.0001) SETDIAG: Allocate100 x  1 Levels for Diagnostic #    32 WVEL
(PID.TID 0000.0001) SETDIAG: Allocate100 x  1 Levels for Diagnostic #    36 UVELSQ
(PID.TID 0000.0001) SETDIAG: Allocate100 x  1 Levels for Diagnostic #    37 VVELSQ
(PID.TID 0000.0001) SETDIAG: Allocate100 x  1 Levels for Diagnostic #    52 WTHMASS
(PID.TID 0000.0001) SETDIAG: Allocate100 x  1 Levels for Diagnostic #    55 WSLTMASS
(PID.TID 0000.0001)   space allocated for all diagnostics:     905 levels
(PID.TID 0000.0001)   set mate pointer for diag #    80  oceTAUX  , Parms: UU      U1 , mate:    81
(PID.TID 0000.0001)   set mate pointer for diag #    81  oceTAUY  , Parms: VV      U1 , mate:    80
(PID.TID 0000.0001)   set mate pointer for diag #    30  UVEL     , Parms: UUR     MR , mate:    31
(PID.TID 0000.0001)   set mate pointer for diag #    31  VVEL     , Parms: VVR     MR , mate:    30
(PID.TID 0000.0001)   set mate pointer for diag #    36  UVELSQ   , Parms: UURP    MR , mate:    37
(PID.TID 0000.0001)   set mate pointer for diag #    37  VVELSQ   , Parms: VVRP    MR , mate:    36
(PID.TID 0000.0001) DIAGNOSTICS_SET_POINTERS: Set levels for Outp.Stream: diags/surface
(PID.TID 0000.0001)  Levels:       1.
(PID.TID 0000.0001) DIAGNOSTICS_SET_POINTERS: Set levels for Outp.Stream: diags/interior
(PID.TID 0000.0001)  Levels:       1.   2.   3.   4.   5.   6.   7.   8.   9.  10.  11.  12.  13.  14.  15.  16.  17.  18.  19.  20.
(PID.TID 0000.0001)  Levels:      21.  22.  23.  24.  25.  26.  27.  28.  29.  30.  31.  32.  33.  34.  35.  36.  37.  38.  39.  40.
(PID.TID 0000.0001)  Levels:      41.  42.  43.  44.  45.  46.  47.  48.  49.  50.  51.  52.  53.  54.  55.  56.  57.  58.  59.  60.
(PID.TID 0000.0001)  Levels:      61.  62.  63.  64.  65.  66.  67.  68.  69.  70.  71.  72.  73.  74.  75.  76.  77.  78.  79.  80.
(PID.TID 0000.0001)  Levels:      81.  82.  83.  84.  85.  86.  87.  88.  89.  90.  91.  92.  93.  94.  95.  96.  97.  98.  99. 100.
(PID.TID 0000.0001) DIAGNOSTICS_SET_POINTERS: done
(PID.TID 0000.0001) ------------------------------------------------------------
(PID.TID 0000.0001) DIAGSTATS_SET_REGIONS: define no region
(PID.TID 0000.0001) ------------------------------------------------------------
(PID.TID 0000.0001)   space allocated for all stats-diags:       0 levels
(PID.TID 0000.0001) DIAGSTATS_SET_POINTERS: done
(PID.TID 0000.0001) ------------------------------------------------------------
(PID.TID 0000.0001) %MON fCori_max                    =   1.0041453744604E-04
(PID.TID 0000.0001) %MON fCori_min                    =   6.5455127240189E-05
(PID.TID 0000.0001) %MON fCori_mean                   =   8.4108169069800E-05
(PID.TID 0000.0001) %MON fCori_sd                     =   1.0123559863785E-05
(PID.TID 0000.0001) %MON fCoriG_max                   =   1.0038858482075E-04
(PID.TID 0000.0001) %MON fCoriG_min                   =   6.5416191986868E-05
(PID.TID 0000.0001) %MON fCoriG_mean                  =   8.4075736074280E-05
(PID.TID 0000.0001) %MON fCoriG_sd                    =   1.0127339310370E-05
(PID.TID 0000.0001) %MON fCoriCos_max                 =   1.3032901623502E-04
(PID.TID 0000.0001) %MON fCoriCos_min                 =   1.0576836400510E-04
(PID.TID 0000.0001) %MON fCoriCos_mean                =   1.1849999056980E-04
(PID.TID 0000.0001) %MON fCoriCos_sd                  =   7.1489734356779E-06
(PID.TID 0000.0001) INI_CG2D: CG2D normalisation factor =  1.4987118910715993E-04
(PID.TID 0000.0001) INI_CG2D: cg2dTolerance = 7.057349561527589E-12 (Area=1.1301464310E+13)
(PID.TID 0000.0001) 
(PID.TID 0000.0001) // =======================================================
(PID.TID 0000.0001) // Model configuration
(PID.TID 0000.0001) // =======================================================
(PID.TID 0000.0001) //
(PID.TID 0000.0001) // "Physical" paramters ( PARM01 in namelist )
(PID.TID 0000.0001) //
(PID.TID 0000.0001) buoyancyRelation = /* Type of relation to get Buoyancy */
(PID.TID 0000.0001)               'OCEANIC'
(PID.TID 0000.0001)     ;
(PID.TID 0000.0001) fluidIsAir   =  /* fluid major constituent is Air */
(PID.TID 0000.0001)                   F
(PID.TID 0000.0001)     ;
(PID.TID 0000.0001) fluidIsWater =  /* fluid major constituent is Water */
(PID.TID 0000.0001)                   T
(PID.TID 0000.0001)     ;
(PID.TID 0000.0001) usingPCoords =  /* use p (or p*) vertical coordinate */
(PID.TID 0000.0001)                   F
(PID.TID 0000.0001)     ;
(PID.TID 0000.0001) usingZCoords =  /* use z (or z*) vertical coordinate */
(PID.TID 0000.0001)                   T
(PID.TID 0000.0001)     ;
(PID.TID 0000.0001) tRef =   /* Reference temperature profile ( oC or K ) */
(PID.TID 0000.0001)     5 @  1.889000000000000E+01,             /* K =  1:  5 */
(PID.TID 0000.0001)                 1.887000000000000E+01,      /* K =  6 */
(PID.TID 0000.0001)                 1.885000000000000E+01,      /* K =  7 */
(PID.TID 0000.0001)                 1.882000000000000E+01,      /* K =  8 */
(PID.TID 0000.0001)                 1.880000000000000E+01,      /* K =  9 */
(PID.TID 0000.0001)                 1.873000000000000E+01,      /* K = 10 */
(PID.TID 0000.0001)                 1.863000000000000E+01,      /* K = 11 */
(PID.TID 0000.0001)                 1.849000000000000E+01,      /* K = 12 */
(PID.TID 0000.0001)                 1.828000000000000E+01,      /* K = 13 */
(PID.TID 0000.0001)                 1.808000000000000E+01,      /* K = 14 */
(PID.TID 0000.0001)                 1.786000000000000E+01,      /* K = 15 */
(PID.TID 0000.0001)                 1.763000000000000E+01,      /* K = 16 */
(PID.TID 0000.0001)                 1.740000000000000E+01,      /* K = 17 */
(PID.TID 0000.0001)                 1.718000000000000E+01,      /* K = 18 */
(PID.TID 0000.0001)                 1.695000000000000E+01,      /* K = 19 */
(PID.TID 0000.0001)                 1.673000000000000E+01,      /* K = 20 */
(PID.TID 0000.0001)                 1.652000000000000E+01,      /* K = 21 */
(PID.TID 0000.0001)                 1.631000000000000E+01,      /* K = 22 */
(PID.TID 0000.0001)                 1.610000000000000E+01,      /* K = 23 */
(PID.TID 0000.0001)                 1.589000000000000E+01,      /* K = 24 */
(PID.TID 0000.0001)                 1.569000000000000E+01,      /* K = 25 */
(PID.TID 0000.0001)                 1.549000000000000E+01,      /* K = 26 */
(PID.TID 0000.0001)                 1.528000000000000E+01,      /* K = 27 */
(PID.TID 0000.0001)                 1.508000000000000E+01,      /* K = 28 */
(PID.TID 0000.0001)                 1.488000000000000E+01,      /* K = 29 */
(PID.TID 0000.0001)                 1.467000000000000E+01,      /* K = 30 */
(PID.TID 0000.0001)                 1.447000000000000E+01,      /* K = 31 */
(PID.TID 0000.0001)                 1.425000000000000E+01,      /* K = 32 */
(PID.TID 0000.0001)                 1.403000000000000E+01,      /* K = 33 */
(PID.TID 0000.0001)                 1.380000000000000E+01,      /* K = 34 */
(PID.TID 0000.0001)                 1.355000000000000E+01,      /* K = 35 */
(PID.TID 0000.0001)                 1.329000000000000E+01,      /* K = 36 */
(PID.TID 0000.0001)                 1.301000000000000E+01,      /* K = 37 */
(PID.TID 0000.0001)                 1.273000000000000E+01,      /* K = 38 */
(PID.TID 0000.0001)                 1.242000000000000E+01,      /* K = 39 */
(PID.TID 0000.0001)                 1.211000000000000E+01,      /* K = 40 */
(PID.TID 0000.0001)                 1.178000000000000E+01,      /* K = 41 */
(PID.TID 0000.0001)                 1.143000000000000E+01,      /* K = 42 */
(PID.TID 0000.0001)                 1.107000000000000E+01,      /* K = 43 */
(PID.TID 0000.0001)                 1.070000000000000E+01,      /* K = 44 */
(PID.TID 0000.0001)                 1.031000000000000E+01,      /* K = 45 */
(PID.TID 0000.0001)                 9.930000000000000E+00,      /* K = 46 */
(PID.TID 0000.0001)                 9.529999999999999E+00,      /* K = 47 */
(PID.TID 0000.0001)                 9.109999999999999E+00,      /* K = 48 */
(PID.TID 0000.0001)                 8.710000000000001E+00,      /* K = 49 */
(PID.TID 0000.0001)                 8.289999999999999E+00,      /* K = 50 */
(PID.TID 0000.0001)                 7.890000000000000E+00,      /* K = 51 */
(PID.TID 0000.0001)                 7.510000000000000E+00,      /* K = 52 */
(PID.TID 0000.0001)                 7.130000000000000E+00,      /* K = 53 */
(PID.TID 0000.0001)                 6.780000000000000E+00,      /* K = 54 */
(PID.TID 0000.0001)                 6.440000000000000E+00,      /* K = 55 */
(PID.TID 0000.0001)                 6.110000000000000E+00,      /* K = 56 */
(PID.TID 0000.0001)                 5.810000000000000E+00,      /* K = 57 */
(PID.TID 0000.0001)                 5.510000000000000E+00,      /* K = 58 */
(PID.TID 0000.0001)                 5.230000000000000E+00,      /* K = 59 */
(PID.TID 0000.0001)                 4.970000000000000E+00,      /* K = 60 */
(PID.TID 0000.0001)                 4.730000000000000E+00,      /* K = 61 */
(PID.TID 0000.0001)                 4.510000000000000E+00,      /* K = 62 */
(PID.TID 0000.0001)                 4.300000000000000E+00,      /* K = 63 */
(PID.TID 0000.0001)                 4.110000000000000E+00,      /* K = 64 */
(PID.TID 0000.0001)                 3.940000000000000E+00,      /* K = 65 */
(PID.TID 0000.0001)                 3.780000000000000E+00,      /* K = 66 */
(PID.TID 0000.0001)                 3.630000000000000E+00,      /* K = 67 */
(PID.TID 0000.0001)                 3.500000000000000E+00,      /* K = 68 */
(PID.TID 0000.0001)                 3.380000000000000E+00,      /* K = 69 */
(PID.TID 0000.0001)                 3.250000000000000E+00,      /* K = 70 */
(PID.TID 0000.0001)                 3.140000000000000E+00,      /* K = 71 */
(PID.TID 0000.0001)                 3.040000000000000E+00,      /* K = 72 */
(PID.TID 0000.0001)                 2.940000000000000E+00,      /* K = 73 */
(PID.TID 0000.0001)                 2.830000000000000E+00,      /* K = 74 */
(PID.TID 0000.0001)                 2.740000000000000E+00,      /* K = 75 */
(PID.TID 0000.0001)                 2.640000000000000E+00,      /* K = 76 */
(PID.TID 0000.0001)                 2.540000000000000E+00,      /* K = 77 */
(PID.TID 0000.0001)                 2.450000000000000E+00,      /* K = 78 */
(PID.TID 0000.0001)                 2.360000000000000E+00,      /* K = 79 */
(PID.TID 0000.0001)                 2.270000000000000E+00,      /* K = 80 */
(PID.TID 0000.0001)                 2.190000000000000E+00,      /* K = 81 */
(PID.TID 0000.0001)                 2.100000000000000E+00,      /* K = 82 */
(PID.TID 0000.0001)                 2.030000000000000E+00,      /* K = 83 */
(PID.TID 0000.0001)                 1.950000000000000E+00,      /* K = 84 */
(PID.TID 0000.0001)                 1.860000000000000E+00,      /* K = 85 */
(PID.TID 0000.0001)                 1.780000000000000E+00,      /* K = 86 */
(PID.TID 0000.0001)                 1.700000000000000E+00,      /* K = 87 */
(PID.TID 0000.0001)                 1.630000000000000E+00,      /* K = 88 */
(PID.TID 0000.0001)                 1.550000000000000E+00,      /* K = 89 */
(PID.TID 0000.0001)                 1.480000000000000E+00,      /* K = 90 */
(PID.TID 0000.0001)                 1.410000000000000E+00,      /* K = 91 */
(PID.TID 0000.0001)                 1.340000000000000E+00,      /* K = 92 */
(PID.TID 0000.0001)                 1.270000000000000E+00,      /* K = 93 */
(PID.TID 0000.0001)                 1.200000000000000E+00,      /* K = 94 */
(PID.TID 0000.0001)                 1.130000000000000E+00,      /* K = 95 */
(PID.TID 0000.0001)                 1.060000000000000E+00,      /* K = 96 */
(PID.TID 0000.0001)                 1.000000000000000E+00,      /* K = 97 */
(PID.TID 0000.0001)                 9.600000000000000E-01,      /* K = 98 */
(PID.TID 0000.0001)                 9.300000000000000E-01,      /* K = 99 */
(PID.TID 0000.0001)                 9.100000000000000E-01       /* K =100 */
(PID.TID 0000.0001)     ;
(PID.TID 0000.0001) sRef =   /* Reference salinity profile ( psu ) */
(PID.TID 0000.0001)     6 @  3.484000000000000E+01,             /* K =  1:  6 */
(PID.TID 0000.0001)     3 @  3.485000000000000E+01,             /* K =  7:  9 */
(PID.TID 0000.0001)                 3.486000000000000E+01,      /* K = 10 */
(PID.TID 0000.0001)                 3.487000000000000E+01,      /* K = 11 */
(PID.TID 0000.0001)                 3.488000000000000E+01,      /* K = 12 */
(PID.TID 0000.0001)                 3.490000000000000E+01,      /* K = 13 */
(PID.TID 0000.0001)                 3.491000000000000E+01,      /* K = 14 */
(PID.TID 0000.0001)                 3.493000000000000E+01,      /* K = 15 */
(PID.TID 0000.0001)                 3.495000000000000E+01,      /* K = 16 */
(PID.TID 0000.0001)                 3.496000000000000E+01,      /* K = 17 */
(PID.TID 0000.0001)                 3.498000000000000E+01,      /* K = 18 */
(PID.TID 0000.0001)                 3.499000000000000E+01,      /* K = 19 */
(PID.TID 0000.0001)                 3.500000000000000E+01,      /* K = 20 */
(PID.TID 0000.0001)                 3.501000000000000E+01,      /* K = 21 */
(PID.TID 0000.0001)                 3.502000000000000E+01,      /* K = 22 */
(PID.TID 0000.0001)                 3.503000000000000E+01,      /* K = 23 */
(PID.TID 0000.0001)                 3.504000000000000E+01,      /* K = 24 */
(PID.TID 0000.0001)                 3.505000000000000E+01,      /* K = 25 */
(PID.TID 0000.0001)                 3.506000000000000E+01,      /* K = 26 */
(PID.TID 0000.0001)     7 @  3.507000000000000E+01,             /* K = 27: 33 */
(PID.TID 0000.0001)                 3.506000000000000E+01,      /* K = 34 */
(PID.TID 0000.0001)                 3.505000000000000E+01,      /* K = 35 */
(PID.TID 0000.0001)                 3.504000000000000E+01,      /* K = 36 */
(PID.TID 0000.0001)                 3.503000000000000E+01,      /* K = 37 */
(PID.TID 0000.0001)                 3.502000000000000E+01,      /* K = 38 */
(PID.TID 0000.0001)                 3.501000000000000E+01,      /* K = 39 */
(PID.TID 0000.0001)                 3.499000000000000E+01,      /* K = 40 */
(PID.TID 0000.0001)                 3.497000000000000E+01,      /* K = 41 */
(PID.TID 0000.0001)                 3.495000000000000E+01,      /* K = 42 */
(PID.TID 0000.0001)                 3.492000000000000E+01,      /* K = 43 */
(PID.TID 0000.0001)                 3.490000000000000E+01,      /* K = 44 */
(PID.TID 0000.0001)                 3.487000000000000E+01,      /* K = 45 */
(PID.TID 0000.0001)                 3.484000000000000E+01,      /* K = 46 */
(PID.TID 0000.0001)                 3.481000000000000E+01,      /* K = 47 */
(PID.TID 0000.0001)                 3.478000000000000E+01,      /* K = 48 */
(PID.TID 0000.0001)                 3.475000000000000E+01,      /* K = 49 */
(PID.TID 0000.0001)                 3.472000000000000E+01,      /* K = 50 */
(PID.TID 0000.0001)                 3.469000000000000E+01,      /* K = 51 */
(PID.TID 0000.0001)                 3.467000000000000E+01,      /* K = 52 */
(PID.TID 0000.0001)                 3.465000000000000E+01,      /* K = 53 */
(PID.TID 0000.0001)                 3.462000000000000E+01,      /* K = 54 */
(PID.TID 0000.0001)                 3.461000000000000E+01,      /* K = 55 */
(PID.TID 0000.0001)                 3.460000000000000E+01,      /* K = 56 */
(PID.TID 0000.0001)     2 @  3.459000000000000E+01,             /* K = 57: 58 */
(PID.TID 0000.0001)                 3.458000000000000E+01,      /* K = 59 */
(PID.TID 0000.0001)     2 @  3.459000000000000E+01,             /* K = 60: 61 */
(PID.TID 0000.0001)     2 @  3.460000000000000E+01,             /* K = 62: 63 */
(PID.TID 0000.0001)                 3.461000000000000E+01,      /* K = 64 */
(PID.TID 0000.0001)                 3.462000000000000E+01,      /* K = 65 */
(PID.TID 0000.0001)                 3.463000000000000E+01,      /* K = 66 */
(PID.TID 0000.0001)                 3.464000000000000E+01,      /* K = 67 */
(PID.TID 0000.0001)                 3.465000000000000E+01,      /* K = 68 */
(PID.TID 0000.0001)                 3.466000000000000E+01,      /* K = 69 */
(PID.TID 0000.0001)     2 @  3.467000000000000E+01,             /* K = 70: 71 */
(PID.TID 0000.0001)                 3.468000000000000E+01,      /* K = 72 */
(PID.TID 0000.0001)                 3.469000000000000E+01,      /* K = 73 */
(PID.TID 0000.0001)                 3.470000000000000E+01,      /* K = 74 */
(PID.TID 0000.0001)     2 @  3.471000000000000E+01,             /* K = 75: 76 */
(PID.TID 0000.0001)     2 @  3.472000000000000E+01,             /* K = 77: 78 */
(PID.TID 0000.0001)     3 @  3.473000000000000E+01,             /* K = 79: 81 */
(PID.TID 0000.0001)     4 @  3.474000000000000E+01,             /* K = 82: 85 */
(PID.TID 0000.0001)                 3.475000000000000E+01,      /* K = 86 */
(PID.TID 0000.0001)     8 @  3.474000000000000E+01,             /* K = 87: 94 */
(PID.TID 0000.0001)     6 @  3.473000000000000E+01              /* K = 95:100 */
(PID.TID 0000.0001)     ;
(PID.TID 0000.0001) useStrainTensionVisc= /* Use StrainTension Form of Viscous Operator */
(PID.TID 0000.0001)                   F
(PID.TID 0000.0001)     ;
(PID.TID 0000.0001) useVariableVisc = /* Use variable horizontal viscosity */
(PID.TID 0000.0001)                   T
(PID.TID 0000.0001)     ;
(PID.TID 0000.0001) useHarmonicVisc = /* Use harmonic horizontal viscosity */
(PID.TID 0000.0001)                   F
(PID.TID 0000.0001)     ;
(PID.TID 0000.0001) useBiharmonicVisc= /* Use biharmonic horiz.  viscosity */
(PID.TID 0000.0001)                   T
(PID.TID 0000.0001)     ;
(PID.TID 0000.0001) useSmag3D = /* Use isotropic 3-D Smagorinsky viscosity */
(PID.TID 0000.0001)                   F
(PID.TID 0000.0001)     ;
(PID.TID 0000.0001) viscAh  =   /* Lateral harmonic viscosity ( m^2/s ) */
(PID.TID 0000.0001)                 0.000000000000000E+00
(PID.TID 0000.0001)     ;
(PID.TID 0000.0001) viscAhMax = /* Maximum lateral harmonic viscosity ( m^2/s ) */
(PID.TID 0000.0001)                 1.000000000000000E+21
(PID.TID 0000.0001)     ;
(PID.TID 0000.0001) viscAhGrid = /* Grid dependent lateral harmonic viscosity ( non-dim. ) */
(PID.TID 0000.0001)                 0.000000000000000E+00
(PID.TID 0000.0001)     ;
(PID.TID 0000.0001) useFullLeith = /* Use Full Form of Leith Viscosity on/off flag*/
(PID.TID 0000.0001)                   F
(PID.TID 0000.0001)     ;
(PID.TID 0000.0001) useAreaViscLength = /* Use area for visc length instead of geom. mean*/
(PID.TID 0000.0001)                   T
(PID.TID 0000.0001)     ;
(PID.TID 0000.0001) viscC2leith = /* Leith harmonic visc. factor (on grad(vort),non-dim.) */
(PID.TID 0000.0001)                 0.000000000000000E+00
(PID.TID 0000.0001)     ;
(PID.TID 0000.0001) viscC2leithD = /* Leith harmonic viscosity factor (on grad(div),non-dim.)*/
(PID.TID 0000.0001)                 0.000000000000000E+00
(PID.TID 0000.0001)     ;
(PID.TID 0000.0001) viscC2smag = /* Smagorinsky harmonic viscosity factor (non-dim.) */
(PID.TID 0000.0001)                 0.000000000000000E+00
(PID.TID 0000.0001)     ;
(PID.TID 0000.0001) viscA4  =   /* Lateral biharmonic viscosity ( m^4/s ) */
(PID.TID 0000.0001)                 0.000000000000000E+00
(PID.TID 0000.0001)     ;
(PID.TID 0000.0001) viscA4Max = /* Maximum biharmonic viscosity ( m^2/s ) */
(PID.TID 0000.0001)                 1.000000000000000E+21
(PID.TID 0000.0001)     ;
(PID.TID 0000.0001) viscA4Grid = /* Grid dependent biharmonic viscosity ( non-dim. ) */
(PID.TID 0000.0001)                 0.000000000000000E+00
(PID.TID 0000.0001)     ;
(PID.TID 0000.0001) viscC4leith = /* Leith biharm viscosity factor (on grad(vort), non-dim.)*/
(PID.TID 0000.0001)                 2.000000000000000E+00
(PID.TID 0000.0001)     ;
(PID.TID 0000.0001) viscC4leithD = /* Leith biharm viscosity factor (on grad(div), non-dim.) */
(PID.TID 0000.0001)                 2.000000000000000E+00
(PID.TID 0000.0001)     ;
(PID.TID 0000.0001) viscC4Smag = /* Smagorinsky biharm viscosity factor (non-dim) */
(PID.TID 0000.0001)                 0.000000000000000E+00
(PID.TID 0000.0001)     ;
(PID.TID 0000.0001) no_slip_sides =  /* Viscous BCs: No-slip sides */
(PID.TID 0000.0001)                   T
(PID.TID 0000.0001)     ;
(PID.TID 0000.0001) sideDragFactor = /* side-drag scaling factor (non-dim) */
(PID.TID 0000.0001)                 2.000000000000000E+00
(PID.TID 0000.0001)     ;
(PID.TID 0000.0001) viscArNr = /* vertical profile of vertical viscosity ( m^2/s )*/
(PID.TID 0000.0001)   100 @  5.000000000000000E-04              /* K =  1:100 */
(PID.TID 0000.0001)     ;
(PID.TID 0000.0001) no_slip_bottom =  /* Viscous BCs: No-slip bottom */
(PID.TID 0000.0001)                   T
(PID.TID 0000.0001)     ;
(PID.TID 0000.0001) bottomVisc_pCell = /* Partial-cell in bottom Visc. BC */
(PID.TID 0000.0001)                   F
(PID.TID 0000.0001)     ;
(PID.TID 0000.0001) bottomDragLinear = /* linear bottom-drag coefficient ( m/s ) */
(PID.TID 0000.0001)                 0.000000000000000E+00
(PID.TID 0000.0001)     ;
(PID.TID 0000.0001) bottomDragQuadratic = /* quadratic bottom-drag coefficient (-) */
(PID.TID 0000.0001)                 2.000000000000000E-03
(PID.TID 0000.0001)     ;
(PID.TID 0000.0001) selectBotDragQuadr = /* select quadratic bottom drag options */
(PID.TID 0000.0001)                       0
(PID.TID 0000.0001)     ;
(PID.TID 0000.0001) diffKhT =   /* Laplacian diffusion of heat laterally ( m^2/s ) */
(PID.TID 0000.0001)                 0.000000000000000E+00
(PID.TID 0000.0001)     ;
(PID.TID 0000.0001) diffK4T =   /* Biharmonic diffusion of heat laterally ( m^4/s ) */
(PID.TID 0000.0001)                 0.000000000000000E+00
(PID.TID 0000.0001)     ;
(PID.TID 0000.0001) diffKhS =   /* Laplacian diffusion of salt laterally ( m^2/s ) */
(PID.TID 0000.0001)                 0.000000000000000E+00
(PID.TID 0000.0001)     ;
(PID.TID 0000.0001) diffK4S =   /* Biharmonic diffusion of salt laterally ( m^4/s ) */
(PID.TID 0000.0001)                 0.000000000000000E+00
(PID.TID 0000.0001)     ;
(PID.TID 0000.0001) diffKrNrT = /* vertical profile of vertical diffusion of Temp ( m^2/s )*/
(PID.TID 0000.0001)   100 @  1.000000000000000E-05              /* K =  1:100 */
(PID.TID 0000.0001)     ;
(PID.TID 0000.0001) diffKrNrS = /* vertical profile of vertical diffusion of Salt ( m^2/s )*/
(PID.TID 0000.0001)   100 @  1.000000000000000E-05              /* K =  1:100 */
(PID.TID 0000.0001)     ;
(PID.TID 0000.0001) diffKrBL79surf = /* Surface diffusion for Bryan and Lewis 79 ( m^2/s ) */
(PID.TID 0000.0001)                 0.000000000000000E+00
(PID.TID 0000.0001)     ;
(PID.TID 0000.0001) diffKrBL79deep = /* Deep diffusion for Bryan and Lewis 1979 ( m^2/s ) */
(PID.TID 0000.0001)                 0.000000000000000E+00
(PID.TID 0000.0001)     ;
(PID.TID 0000.0001) diffKrBL79scl = /* Depth scale for Bryan and Lewis 1979 ( m ) */
(PID.TID 0000.0001)                 2.000000000000000E+02
(PID.TID 0000.0001)     ;
(PID.TID 0000.0001) diffKrBL79Ho = /* Turning depth for Bryan and Lewis 1979 ( m ) */
(PID.TID 0000.0001)                -2.000000000000000E+03
(PID.TID 0000.0001)     ;
(PID.TID 0000.0001) ivdc_kappa = /* Implicit Vertical Diffusivity for Convection ( m^2/s) */
(PID.TID 0000.0001)                 0.000000000000000E+00
(PID.TID 0000.0001)     ;
(PID.TID 0000.0001) hMixCriteria=  /* Criteria for mixed-layer diagnostic */
(PID.TID 0000.0001)                -8.000000000000000E-01
(PID.TID 0000.0001)     ;
(PID.TID 0000.0001) dRhoSmall =  /* Parameter for mixed-layer diagnostic */
(PID.TID 0000.0001)                 1.000000000000000E-06
(PID.TID 0000.0001)     ;
(PID.TID 0000.0001) hMixSmooth=  /* Smoothing parameter for mixed-layer diagnostic */
(PID.TID 0000.0001)                 0.000000000000000E+00
(PID.TID 0000.0001)     ;
(PID.TID 0000.0001) eosType =  /* Type of Equation of State */
(PID.TID 0000.0001)               'JMD95Z'
(PID.TID 0000.0001)     ;
(PID.TID 0000.0001) selectP_inEOS_Zc = /* select pressure to use in EOS (0,1,2,3) */
(PID.TID 0000.0001)                       0
(PID.TID 0000.0001)     0= -g*rhoConst*z ; 1= pRef (from tRef,sRef); 2= Hyd P ; 3= Hyd+NH P
(PID.TID 0000.0001)     ;
(PID.TID 0000.0001) HeatCapacity_Cp =  /* Specific heat capacity ( J/kg/K ) */
(PID.TID 0000.0001)                 3.994000000000000E+03
(PID.TID 0000.0001)     ;
(PID.TID 0000.0001) celsius2K = /* 0 degree Celsius converted to Kelvin ( K ) */
(PID.TID 0000.0001)                 2.731500000000000E+02
(PID.TID 0000.0001)     ;
(PID.TID 0000.0001) rhoConst  = /* Reference density (Boussinesq)  ( kg/m^3 ) */
(PID.TID 0000.0001)                 1.029000000000000E+03
(PID.TID 0000.0001)     ;
(PID.TID 0000.0001) rhoFacC = /* normalized Reference density @ cell-Center (-) */
(PID.TID 0000.0001)   100 @  1.000000000000000E+00              /* K =  1:100 */
(PID.TID 0000.0001)     ;
(PID.TID 0000.0001) rhoFacF = /* normalized Reference density @ W-Interface (-) */
(PID.TID 0000.0001)   101 @  1.000000000000000E+00              /* K =  1:101 */
(PID.TID 0000.0001)     ;
(PID.TID 0000.0001) rhoConstFresh = /* Fresh-water reference density ( kg/m^3 ) */
(PID.TID 0000.0001)                 1.000000000000000E+03
(PID.TID 0000.0001)     ;
(PID.TID 0000.0001) gravity =   /* Gravitational acceleration ( m/s^2 ) */
(PID.TID 0000.0001)                 9.810000000000000E+00
(PID.TID 0000.0001)     ;
(PID.TID 0000.0001) gBaro =   /* Barotropic gravity ( m/s^2 ) */
(PID.TID 0000.0001)                 9.810000000000000E+00
(PID.TID 0000.0001)     ;
(PID.TID 0000.0001) gravFacC = /* gravity factor (vs surf.) @ cell-Center (-) */
(PID.TID 0000.0001)   100 @  1.000000000000000E+00              /* K =  1:100 */
(PID.TID 0000.0001)     ;
(PID.TID 0000.0001) gravFacF = /* gravity factor (vs surf.) @ W-Interface (-) */
(PID.TID 0000.0001)   101 @  1.000000000000000E+00              /* K =  1:101 */
(PID.TID 0000.0001)     ;
(PID.TID 0000.0001) rotationPeriod =   /* Rotation Period ( s ) */
(PID.TID 0000.0001)                 8.616400000000000E+04
(PID.TID 0000.0001)     ;
(PID.TID 0000.0001) omega =   /* Angular velocity ( rad/s ) */
(PID.TID 0000.0001)                 7.292123516990375E-05
(PID.TID 0000.0001)     ;
(PID.TID 0000.0001) f0 =   /* Reference coriolis parameter ( 1/s ) */
(PID.TID 0000.0001)                 1.000000000000000E-04
(PID.TID 0000.0001)     ;
(PID.TID 0000.0001) beta =   /* Beta ( 1/(m.s) ) */
(PID.TID 0000.0001)                 9.999999999999999E-12
(PID.TID 0000.0001)     ;
(PID.TID 0000.0001) fPrime =   /* Second coriolis parameter ( 1/s ) */
(PID.TID 0000.0001)                 0.000000000000000E+00
(PID.TID 0000.0001)     ;
(PID.TID 0000.0001) rigidLid =   /* Rigid lid on/off flag */
(PID.TID 0000.0001)                   F
(PID.TID 0000.0001)     ;
(PID.TID 0000.0001) implicitFreeSurface =   /* Implicit free surface on/off flag */
(PID.TID 0000.0001)                   T
(PID.TID 0000.0001)     ;
(PID.TID 0000.0001) freeSurfFac =   /* Implicit free surface factor */
(PID.TID 0000.0001)                 1.000000000000000E+00
(PID.TID 0000.0001)     ;
(PID.TID 0000.0001) implicSurfPress =  /* Surface Pressure implicit factor (0-1)*/
(PID.TID 0000.0001)                 1.000000000000000E+00
(PID.TID 0000.0001)     ;
(PID.TID 0000.0001) implicDiv2DFlow =  /* Barot. Flow Div. implicit factor (0-1)*/
(PID.TID 0000.0001)                 1.000000000000000E+00
(PID.TID 0000.0001)     ;
(PID.TID 0000.0001) uniformLin_PhiSurf = /* use uniform Bo_surf on/off flag*/
(PID.TID 0000.0001)                   T
(PID.TID 0000.0001)     ;
(PID.TID 0000.0001) uniformFreeSurfLev = /* free-surface level-index is uniform */
(PID.TID 0000.0001)                   T
(PID.TID 0000.0001)     ;
(PID.TID 0000.0001) hFacMin =   /* minimum partial cell factor (hFac) */
(PID.TID 0000.0001)                 2.000000000000000E-01
(PID.TID 0000.0001)     ;
(PID.TID 0000.0001) hFacMinDr = /* minimum partial cell thickness ( m) */
(PID.TID 0000.0001)                 5.000000000000000E+00
(PID.TID 0000.0001)     ;
(PID.TID 0000.0001) exactConserv =  /* Exact Volume Conservation on/off flag*/
(PID.TID 0000.0001)                   T
(PID.TID 0000.0001)     ;
(PID.TID 0000.0001) linFSConserveTr = /* Tracer correction for Lin Free Surface on/off flag*/
(PID.TID 0000.0001)                   F
(PID.TID 0000.0001)     ;
(PID.TID 0000.0001) nonlinFreeSurf = /* Non-linear Free Surf. options (-1,0,1,2,3)*/
(PID.TID 0000.0001)                       0
(PID.TID 0000.0001)      -1,0= Off ; 1,2,3= On, 2=+rescale gU,gV, 3=+update cg2d solv.
(PID.TID 0000.0001)     ;
(PID.TID 0000.0001) hFacInf =   /* lower threshold for hFac (nonlinFreeSurf only)*/
(PID.TID 0000.0001)                 2.000000000000000E-01
(PID.TID 0000.0001)     ;
(PID.TID 0000.0001) hFacSup =   /* upper threshold for hFac (nonlinFreeSurf only)*/
(PID.TID 0000.0001)                 2.000000000000000E+00
(PID.TID 0000.0001)     ;
(PID.TID 0000.0001) select_rStar = /* r* Vertical coord. options (=0 r coord.; >0 uses r*)*/
(PID.TID 0000.0001)                       0
(PID.TID 0000.0001)     ;
(PID.TID 0000.0001) useRealFreshWaterFlux = /* Real Fresh Water Flux on/off flag*/
(PID.TID 0000.0001)                   F
(PID.TID 0000.0001)     ;
(PID.TID 0000.0001) temp_EvPrRn = /* Temp. of Evap/Prec/R (UNSET=use local T)(oC)*/
(PID.TID 0000.0001)                 0.000000000000000E+00
(PID.TID 0000.0001)     ;
(PID.TID 0000.0001) salt_EvPrRn = /* Salin. of Evap/Prec/R (UNSET=use local S)(psu)*/
(PID.TID 0000.0001)                 0.000000000000000E+00
(PID.TID 0000.0001)     ;
(PID.TID 0000.0001) selectAddFluid = /* option for mass source/sink of fluid (=0: off) */
(PID.TID 0000.0001)                       0
(PID.TID 0000.0001)     ;
(PID.TID 0000.0001) temp_addMass = /* Temp. of addMass array (UNSET=use local T)(oC)*/
(PID.TID 0000.0001)                 0.000000000000000E+00
(PID.TID 0000.0001)     ;
(PID.TID 0000.0001) salt_addMass = /* Salin. of addMass array (UNSET=use local S)(psu)*/
(PID.TID 0000.0001)                 0.000000000000000E+00
(PID.TID 0000.0001)     ;
(PID.TID 0000.0001) convertFW2Salt = /* convert F.W. Flux to Salt Flux (-1=use local S)(psu)*/
(PID.TID 0000.0001)                -1.000000000000000E+00
(PID.TID 0000.0001)     ;
(PID.TID 0000.0001) use3Dsolver = /* use 3-D pressure solver on/off flag */
(PID.TID 0000.0001)                   F
(PID.TID 0000.0001)     ;
(PID.TID 0000.0001) nonHydrostatic =  /* Non-Hydrostatic on/off flag */
(PID.TID 0000.0001)                   F
(PID.TID 0000.0001)     ;
(PID.TID 0000.0001) nh_Am2 = /* Non-Hydrostatic terms scaling factor */
(PID.TID 0000.0001)                 1.000000000000000E+00
(PID.TID 0000.0001)     ;
(PID.TID 0000.0001) implicitNHPress = /* Non-Hyd Pressure implicit factor (0-1)*/
(PID.TID 0000.0001)                 1.000000000000000E+00
(PID.TID 0000.0001)     ;
(PID.TID 0000.0001) selectNHfreeSurf = /* Non-Hyd (free-)Surface option */
(PID.TID 0000.0001)                       0
(PID.TID 0000.0001)     ;
(PID.TID 0000.0001) quasiHydrostatic = /* Quasi-Hydrostatic on/off flag */
(PID.TID 0000.0001)                   F
(PID.TID 0000.0001)     ;
(PID.TID 0000.0001) calc_wVelocity = /* vertical velocity calculation on/off flag */
(PID.TID 0000.0001)                   T
(PID.TID 0000.0001)     ;
(PID.TID 0000.0001) momStepping =  /* Momentum equation on/off flag */
(PID.TID 0000.0001)                   T
(PID.TID 0000.0001)     ;
(PID.TID 0000.0001) vectorInvariantMomentum= /* Vector-Invariant Momentum on/off */
(PID.TID 0000.0001)                   T
(PID.TID 0000.0001)     ;
(PID.TID 0000.0001) momAdvection =  /* Momentum advection on/off flag */
(PID.TID 0000.0001)                   T
(PID.TID 0000.0001)     ;
(PID.TID 0000.0001) momViscosity =  /* Momentum viscosity on/off flag */
(PID.TID 0000.0001)                   T
(PID.TID 0000.0001)     ;
(PID.TID 0000.0001) momImplVertAdv= /* Momentum implicit vert. advection on/off*/
(PID.TID 0000.0001)                   F
(PID.TID 0000.0001)     ;
(PID.TID 0000.0001) implicitViscosity = /* Implicit viscosity on/off flag */
(PID.TID 0000.0001)                   T
(PID.TID 0000.0001)     ;
(PID.TID 0000.0001) selectImplicitDrag= /* Implicit bot Drag options (0,1,2)*/
(PID.TID 0000.0001)                       0
(PID.TID 0000.0001)     0= Expl. ; 1= Impl. on provis. Vel ; 2= Fully Impl (with surf.P)
(PID.TID 0000.0001)     ;
(PID.TID 0000.0001) metricTerms =  /* metric-Terms on/off flag */
(PID.TID 0000.0001)                   T
(PID.TID 0000.0001)     ;
(PID.TID 0000.0001) useNHMTerms = /* Non-Hydrostatic Metric-Terms on/off */
(PID.TID 0000.0001)                   F
(PID.TID 0000.0001)     ;
(PID.TID 0000.0001) selectCoriMap = /* Coriolis Map options (0,1,2,3)*/
(PID.TID 0000.0001)                       2
(PID.TID 0000.0001)     0= f-Plane ; 1= Beta-Plane ; 2= Spherical ; 3= read from file
(PID.TID 0000.0001)     ;
(PID.TID 0000.0001) use3dCoriolis = /* 3-D Coriolis on/off flag */
(PID.TID 0000.0001)                   F
(PID.TID 0000.0001)     ;
(PID.TID 0000.0001) useCoriolis =  /* Coriolis on/off flag */
(PID.TID 0000.0001)                   T
(PID.TID 0000.0001)     ;
(PID.TID 0000.0001) useCDscheme =  /* CD scheme on/off flag */
(PID.TID 0000.0001)                   F
(PID.TID 0000.0001)     ;
(PID.TID 0000.0001) useEnergyConservingCoriolis= /* Flx-Form Coriolis scheme flag */
(PID.TID 0000.0001)                   F
(PID.TID 0000.0001)     ;
(PID.TID 0000.0001) useJamartWetPoints= /* Coriolis WetPoints method flag */
(PID.TID 0000.0001)                   F
(PID.TID 0000.0001)     ;
(PID.TID 0000.0001) useJamartMomAdv= /* V.I Non-linear terms Jamart flag */
(PID.TID 0000.0001)                   F
(PID.TID 0000.0001)     ;
(PID.TID 0000.0001) useAbsVorticity= /* V.I Works with f+zeta in Coriolis */
(PID.TID 0000.0001)                   F
(PID.TID 0000.0001)     ;
(PID.TID 0000.0001) selectVortScheme= /* V.I Scheme selector for Vorticity-Term */
(PID.TID 0000.0001)                       0
(PID.TID 0000.0001)    = 0 : enstrophy (Shallow-Water Eq.) conserving scheme by Sadourny, JAS 75
(PID.TID 0000.0001)    = 1 : same as 0 with modified hFac
(PID.TID 0000.0001)    = 2 : energy conserving scheme (used by Sadourny in JAS 75 paper)
(PID.TID 0000.0001)    = 3 : energy (general) and enstrophy (2D, nonDiv.) conserving scheme
(PID.TID 0000.0001)          from Sadourny (Burridge & Haseler, ECMWF Rep.4, 1977)
(PID.TID 0000.0001)     ;
(PID.TID 0000.0001) upwindVorticity= /* V.I Upwind bias vorticity flag */
(PID.TID 0000.0001)                   F
(PID.TID 0000.0001)     ;
(PID.TID 0000.0001) highOrderVorticity= /* V.I High order vort. advect. flag */
(PID.TID 0000.0001)                   T
(PID.TID 0000.0001)     ;
(PID.TID 0000.0001) upwindShear= /* V.I Upwind vertical Shear advection flag */
(PID.TID 0000.0001)                   F
(PID.TID 0000.0001)     ;
(PID.TID 0000.0001) selectKEscheme= /* V.I Kinetic Energy scheme selector */
(PID.TID 0000.0001)                       0
(PID.TID 0000.0001)     ;
(PID.TID 0000.0001) momForcing =  /* Momentum forcing on/off flag */
(PID.TID 0000.0001)                   T
(PID.TID 0000.0001)     ;
(PID.TID 0000.0001) momTidalForcing = /* Momentum Tidal forcing on/off flag */
(PID.TID 0000.0001)                   T
(PID.TID 0000.0001)     ;
(PID.TID 0000.0001) momPressureForcing =  /* Momentum pressure term on/off flag */
(PID.TID 0000.0001)                   T
(PID.TID 0000.0001)     ;
(PID.TID 0000.0001) implicitIntGravWave= /* Implicit Internal Gravity Wave flag */
(PID.TID 0000.0001)                   F
(PID.TID 0000.0001)     ;
(PID.TID 0000.0001) staggerTimeStep =    /* Stagger time stepping on/off flag */
(PID.TID 0000.0001)                   T
(PID.TID 0000.0001)     ;
(PID.TID 0000.0001) doResetHFactors = /* reset thickness factors @ each time-step */
(PID.TID 0000.0001)                   F
(PID.TID 0000.0001)     ;
(PID.TID 0000.0001) multiDimAdvection =  /* enable/disable Multi-Dim Advection */
(PID.TID 0000.0001)                   T
(PID.TID 0000.0001)     ;
(PID.TID 0000.0001) useMultiDimAdvec =   /* Multi-Dim Advection is/is-not used */
(PID.TID 0000.0001)                   T
(PID.TID 0000.0001)     ;
(PID.TID 0000.0001) implicitDiffusion = /* Implicit Diffusion on/off flag */
(PID.TID 0000.0001)                   T
(PID.TID 0000.0001)     ;
(PID.TID 0000.0001) tempStepping =  /* Temperature equation on/off flag */
(PID.TID 0000.0001)                   T
(PID.TID 0000.0001)     ;
(PID.TID 0000.0001) tempAdvection = /* Temperature advection on/off flag */
(PID.TID 0000.0001)                   T
(PID.TID 0000.0001)     ;
(PID.TID 0000.0001) tempImplVertAdv = /* Temp. implicit vert. advection on/off */
(PID.TID 0000.0001)                   F
(PID.TID 0000.0001)     ;
(PID.TID 0000.0001) tempForcing  =  /* Temperature forcing on/off flag */
(PID.TID 0000.0001)                   T
(PID.TID 0000.0001)     ;
(PID.TID 0000.0001) doThetaClimRelax = /* apply SST relaxation on/off flag */
(PID.TID 0000.0001)                   F
(PID.TID 0000.0001)     ;
(PID.TID 0000.0001) tempIsActiveTr = /* Temp. is a dynamically Active Tracer */
(PID.TID 0000.0001)                   T
(PID.TID 0000.0001)     ;
(PID.TID 0000.0001) saltStepping =  /* Salinity equation on/off flag */
(PID.TID 0000.0001)                   T
(PID.TID 0000.0001)     ;
(PID.TID 0000.0001) saltAdvection = /* Salinity advection on/off flag */
(PID.TID 0000.0001)                   T
(PID.TID 0000.0001)     ;
(PID.TID 0000.0001) saltImplVertAdv = /* Sali. implicit vert. advection on/off */
(PID.TID 0000.0001)                   F
(PID.TID 0000.0001)     ;
(PID.TID 0000.0001) saltForcing  =  /* Salinity forcing on/off flag */
(PID.TID 0000.0001)                   T
(PID.TID 0000.0001)     ;
(PID.TID 0000.0001) doSaltClimRelax = /* apply SSS relaxation on/off flag */
(PID.TID 0000.0001)                   F
(PID.TID 0000.0001)     ;
(PID.TID 0000.0001) saltIsActiveTr = /* Salt  is a dynamically Active Tracer */
(PID.TID 0000.0001)                   T
(PID.TID 0000.0001)     ;
(PID.TID 0000.0001)  readBinaryPrec = /* Precision used for reading binary files */
(PID.TID 0000.0001)                      32
(PID.TID 0000.0001)     ;
(PID.TID 0000.0001) writeBinaryPrec = /* Precision used for writing binary files */
(PID.TID 0000.0001)                      32
(PID.TID 0000.0001)     ;
(PID.TID 0000.0001)  rwSuffixType =   /* select format of mds file suffix */
(PID.TID 0000.0001)                       0
(PID.TID 0000.0001)    = 0 : myIter (I10.10) ;   = 1 : 100*myTime (100th sec) ;
(PID.TID 0000.0001)    = 2 : myTime (seconds);   = 3 : myTime/360 (10th of hr);
(PID.TID 0000.0001)    = 4 : myTime/3600 (hours)
(PID.TID 0000.0001)     ;
(PID.TID 0000.0001)  globalFiles = /* write "global" (=not per tile) files */
(PID.TID 0000.0001)                   T
(PID.TID 0000.0001)     ;
(PID.TID 0000.0001)  useSingleCpuIO = /* only master MPI process does I/O */
(PID.TID 0000.0001)                   T
(PID.TID 0000.0001)     ;
(PID.TID 0000.0001)  useSingleCpuInput = /* only master process reads input */
(PID.TID 0000.0001)                   T
(PID.TID 0000.0001)     ;
(PID.TID 0000.0001) /* debLev[*]  : level of debug & auxiliary message printing */
(PID.TID 0000.0001) debLevZero =  0 ; /* level of disabled aux. msg printing */
(PID.TID 0000.0001)    debLevA =  1 ; /* level of minimum  aux. msg printing */
(PID.TID 0000.0001)    debLevB =  2 ; /* level of low aux. print (report read-file opening)*/
(PID.TID 0000.0001)    debLevC =  3 ; /* level of moderate debug prt (most pkgs debug msg) */
(PID.TID 0000.0001)    debLevD =  4 ; /* level of enhanced debug prt (add DEBUG_STATS prt) */
(PID.TID 0000.0001)    debLevE =  5 ; /* level of extensive debug printing */
(PID.TID 0000.0001) debugLevel =  /* select debug printing level */
(PID.TID 0000.0001)                       2
(PID.TID 0000.0001)     ;
(PID.TID 0000.0001)  plotLevel =  /* select PLOT_FIELD printing level */
(PID.TID 0000.0001)                       2
(PID.TID 0000.0001)     ;
(PID.TID 0000.0001) //
(PID.TID 0000.0001) // Elliptic solver(s) paramters ( PARM02 in namelist )
(PID.TID 0000.0001) //
(PID.TID 0000.0001) cg2dMaxIters =   /* Upper limit on 2d con. grad iterations  */
(PID.TID 0000.0001)                    1000
(PID.TID 0000.0001)     ;
(PID.TID 0000.0001) cg2dChkResFreq =   /* 2d con. grad convergence test frequency */
(PID.TID 0000.0001)                       1
(PID.TID 0000.0001)     ;
(PID.TID 0000.0001) cg2dUseMinResSol= /* use cg2d last-iter(=0) / min-resid.(=1) solution */
(PID.TID 0000.0001)                       0
(PID.TID 0000.0001)     ;
(PID.TID 0000.0001) cg2dTargetResidual =   /* 2d con. grad target residual  */
(PID.TID 0000.0001)                 1.000000000000000E-07
(PID.TID 0000.0001)     ;
(PID.TID 0000.0001) cg2dTargetResWunit =   /* CG2d target residual [W units] */
(PID.TID 0000.0001)                 1.000000000000000E-18
(PID.TID 0000.0001)     ;
(PID.TID 0000.0001) cg2dPreCondFreq =   /* Freq. for updating cg2d preconditioner */
(PID.TID 0000.0001)                       1
(PID.TID 0000.0001)     ;
(PID.TID 0000.0001) useSRCGSolver =  /* use single reduction CG solver(s) */
(PID.TID 0000.0001)                   F
(PID.TID 0000.0001)     ;
(PID.TID 0000.0001) printResidualFreq = /* Freq. for printing CG residual */
(PID.TID 0000.0001)                       0
(PID.TID 0000.0001)     ;
(PID.TID 0000.0001) //
(PID.TID 0000.0001) // Time stepping paramters ( PARM03 in namelist )
(PID.TID 0000.0001) //
(PID.TID 0000.0001) deltaTMom =   /* Momentum equation timestep ( s ) */
(PID.TID 0000.0001)                 2.400000000000000E+02
(PID.TID 0000.0001)     ;
(PID.TID 0000.0001) deltaTFreeSurf = /* FreeSurface equation timestep ( s ) */
(PID.TID 0000.0001)                 2.400000000000000E+02
(PID.TID 0000.0001)     ;
(PID.TID 0000.0001) dTtracerLev =  /* Tracer equation timestep ( s ) */
(PID.TID 0000.0001)   100 @  2.400000000000000E+02              /* K =  1:100 */
(PID.TID 0000.0001)     ;
(PID.TID 0000.0001) deltaTClock  =   /* Model clock timestep ( s ) */
(PID.TID 0000.0001)                 2.400000000000000E+02
(PID.TID 0000.0001)     ;
(PID.TID 0000.0001) cAdjFreq =   /* Convective adjustment interval ( s ) */
(PID.TID 0000.0001)                 0.000000000000000E+00
(PID.TID 0000.0001)     ;
(PID.TID 0000.0001) momForcingOutAB = /* =1: take Momentum Forcing out of Adams-Bash. stepping */
(PID.TID 0000.0001)                       1
(PID.TID 0000.0001)     ;
(PID.TID 0000.0001) tracForcingOutAB = /* =1: take T,S,pTr Forcing out of Adams-Bash. stepping */
(PID.TID 0000.0001)                       1
(PID.TID 0000.0001)     ;
(PID.TID 0000.0001) momDissip_In_AB = /* put Dissipation Tendency in Adams-Bash. stepping */
(PID.TID 0000.0001)                   F
(PID.TID 0000.0001)     ;
(PID.TID 0000.0001) doAB_onGtGs = /* apply AB on Tendencies (rather than on T,S)*/
(PID.TID 0000.0001)                   T
(PID.TID 0000.0001)     ;
(PID.TID 0000.0001) abEps =   /* Adams-Bashforth-2 stabilizing weight */
(PID.TID 0000.0001)                 1.000000000000000E-01
(PID.TID 0000.0001)     ;
(PID.TID 0000.0001) applyExchUV_early = /* Apply EXCH to U,V earlier in time-step */
(PID.TID 0000.0001)                   F
(PID.TID 0000.0001)     ;
(PID.TID 0000.0001) pickupStrictlyMatch= /* stop if pickup do not strictly match */
(PID.TID 0000.0001)                   F
(PID.TID 0000.0001)     ;
(PID.TID 0000.0001) nIter0   =   /* Run starting timestep number */
(PID.TID 0000.0001)                       0
(PID.TID 0000.0001)     ;
(PID.TID 0000.0001) nTimeSteps = /* Number of timesteps */
(PID.TID 0000.0001)                      15
(PID.TID 0000.0001)     ;
(PID.TID 0000.0001) nEndIter =   /* Run ending timestep number */
(PID.TID 0000.0001)                      15
(PID.TID 0000.0001)     ;
(PID.TID 0000.0001) baseTime =   /* Model base time ( s ) */
(PID.TID 0000.0001)                 0.000000000000000E+00
(PID.TID 0000.0001)     ;
(PID.TID 0000.0001) startTime =  /* Run start time ( s ) */
(PID.TID 0000.0001)                 0.000000000000000E+00
(PID.TID 0000.0001)     ;
(PID.TID 0000.0001) endTime  =   /* Integration ending time ( s ) */
(PID.TID 0000.0001)                 3.600000000000000E+03
(PID.TID 0000.0001)     ;
(PID.TID 0000.0001) pChkPtFreq = /* Permanent restart/pickup file interval ( s ) */
(PID.TID 0000.0001)                 8.640000000000000E+05
(PID.TID 0000.0001)     ;
(PID.TID 0000.0001) chkPtFreq  = /* Rolling restart/pickup file interval ( s ) */
(PID.TID 0000.0001)                 0.000000000000000E+00
(PID.TID 0000.0001)     ;
(PID.TID 0000.0001) pickup_write_mdsio =   /* Model IO flag. */
(PID.TID 0000.0001)                   T
(PID.TID 0000.0001)     ;
(PID.TID 0000.0001) pickup_read_mdsio =   /* Model IO flag. */
(PID.TID 0000.0001)                   T
(PID.TID 0000.0001)     ;
(PID.TID 0000.0001) writePickupAtEnd =   /* Model IO flag. */
(PID.TID 0000.0001)                   T
(PID.TID 0000.0001)     ;
(PID.TID 0000.0001) dumpFreq =   /* Model state write out interval ( s ). */
(PID.TID 0000.0001)                 0.000000000000000E+00
(PID.TID 0000.0001)     ;
(PID.TID 0000.0001) dumpInitAndLast= /* write out Initial & Last iter. model state */
(PID.TID 0000.0001)                   F
(PID.TID 0000.0001)     ;
(PID.TID 0000.0001) snapshot_mdsio =   /* Model IO flag. */
(PID.TID 0000.0001)                   T
(PID.TID 0000.0001)     ;
(PID.TID 0000.0001) monitorFreq =   /* Monitor output interval ( s ). */
(PID.TID 0000.0001)                 2.400000000000000E+02
(PID.TID 0000.0001)     ;
(PID.TID 0000.0001) monitorSelect = /* select group of variables to monitor */
(PID.TID 0000.0001)                       3
(PID.TID 0000.0001)     ;
(PID.TID 0000.0001) monitor_stdio =   /* Model IO flag. */
(PID.TID 0000.0001)                   T
(PID.TID 0000.0001)     ;
(PID.TID 0000.0001) externForcingPeriod =   /* forcing period (s) */
(PID.TID 0000.0001)                 0.000000000000000E+00
(PID.TID 0000.0001)     ;
(PID.TID 0000.0001) externForcingCycle =   /* period of the cyle (s). */
(PID.TID 0000.0001)                 0.000000000000000E+00
(PID.TID 0000.0001)     ;
(PID.TID 0000.0001) tauThetaClimRelax =   /* relaxation time scale (s) */
(PID.TID 0000.0001)                 0.000000000000000E+00
(PID.TID 0000.0001)     ;
(PID.TID 0000.0001) tauSaltClimRelax =   /* relaxation time scale (s) */
(PID.TID 0000.0001)                 0.000000000000000E+00
(PID.TID 0000.0001)     ;
(PID.TID 0000.0001) latBandClimRelax =   /* max. Lat. where relaxation */
(PID.TID 0000.0001)                 1.800000000000000E+02
(PID.TID 0000.0001)     ;
(PID.TID 0000.0001) //
(PID.TID 0000.0001) // Gridding paramters ( PARM04 in namelist )
(PID.TID 0000.0001) //
(PID.TID 0000.0001) usingCartesianGrid = /* Cartesian coordinates flag ( True/False ) */
(PID.TID 0000.0001)                   F
(PID.TID 0000.0001)     ;
(PID.TID 0000.0001) usingCylindricalGrid = /* Cylindrical coordinates flag ( True/False ) */
(PID.TID 0000.0001)                   F
(PID.TID 0000.0001)     ;
(PID.TID 0000.0001) usingSphericalPolarGrid = /* Spherical coordinates flag ( True/False ) */
(PID.TID 0000.0001)                   T
(PID.TID 0000.0001)     ;
(PID.TID 0000.0001) usingCurvilinearGrid = /* Curvilinear coordinates flag ( True/False ) */
(PID.TID 0000.0001)                   F
(PID.TID 0000.0001)     ;
(PID.TID 0000.0001) useMin4hFacEdges = /* set hFacW,S as minimum of adjacent hFacC factor */
(PID.TID 0000.0001)                   F
(PID.TID 0000.0001)     ;
(PID.TID 0000.0001) interViscAr_pCell = /* account for partial-cell in interior vert. viscosity */
(PID.TID 0000.0001)                   F
(PID.TID 0000.0001)     ;
(PID.TID 0000.0001) interDiffKr_pCell = /* account for partial-cell in interior vert. diffusion */
(PID.TID 0000.0001)                   F
(PID.TID 0000.0001)     ;
(PID.TID 0000.0001) pCellMix_select = /* option to enhance mixing near surface & bottom */
(PID.TID 0000.0001)                       0
(PID.TID 0000.0001)     ;
(PID.TID 0000.0001) selectSigmaCoord = /* Hybrid-Sigma Vert. Coordinate option */
(PID.TID 0000.0001)                       0
(PID.TID 0000.0001)     ;
(PID.TID 0000.0001) rSigmaBnd = /* r/sigma transition ( units of r ==  m ) */
(PID.TID 0000.0001)                 1.234567000000000E+05
(PID.TID 0000.0001)     ;
(PID.TID 0000.0001) rkSign =   /* index orientation relative to vertical coordinate */
(PID.TID 0000.0001)                -1.000000000000000E+00
(PID.TID 0000.0001)     ;
(PID.TID 0000.0001) gravitySign = /* gravity orientation relative to vertical coordinate */
(PID.TID 0000.0001)                -1.000000000000000E+00
(PID.TID 0000.0001)     ;
(PID.TID 0000.0001) seaLev_Z =  /* reference height of sea-level [m] */
(PID.TID 0000.0001)                 0.000000000000000E+00
(PID.TID 0000.0001)     ;
(PID.TID 0000.0001) top_Pres =  /* reference pressure at the top [Pa] */
(PID.TID 0000.0001)                 0.000000000000000E+00
(PID.TID 0000.0001)     ;
(PID.TID 0000.0001) mass2rUnit = /* convert mass per unit area [kg/m2] to r-units [m] */
(PID.TID 0000.0001)                 9.718172983479105E-04
(PID.TID 0000.0001)     ;
(PID.TID 0000.0001) rUnit2mass = /* convert r-units [m] to mass per unit area [kg/m2] */
(PID.TID 0000.0001)                 1.029000000000000E+03
(PID.TID 0000.0001)     ;
(PID.TID 0000.0001) drC =   /* C spacing ( units of r ) */
(PID.TID 0000.0001)                 2.500000000000000E+00,      /* K =  1 */
(PID.TID 0000.0001)    14 @  5.000000000000000E+00,             /* K =  2: 15 */
(PID.TID 0000.0001)                 5.005000000000000E+00,      /* K = 16 */
(PID.TID 0000.0001)                 5.010000000000000E+00,      /* K = 17 */
(PID.TID 0000.0001)                 5.015000000000000E+00,      /* K = 18 */
(PID.TID 0000.0001)                 5.029999999999999E+00,      /* K = 19 */
(PID.TID 0000.0001)                 5.055000000000000E+00,      /* K = 20 */
(PID.TID 0000.0001)                 5.095000000000001E+00,      /* K = 21 */
(PID.TID 0000.0001)                 5.160000000000000E+00,      /* K = 22 */
(PID.TID 0000.0001)                 5.255000000000000E+00,      /* K = 23 */
(PID.TID 0000.0001)                 5.400000000000000E+00,      /* K = 24 */
(PID.TID 0000.0001)                 5.605000000000000E+00,      /* K = 25 */
(PID.TID 0000.0001)                 5.880000000000000E+00,      /* K = 26 */
(PID.TID 0000.0001)                 6.245000000000000E+00,      /* K = 27 */
(PID.TID 0000.0001)                 6.710000000000000E+00,      /* K = 28 */
(PID.TID 0000.0001)                 7.295000000000000E+00,      /* K = 29 */
(PID.TID 0000.0001)                 8.020000000000000E+00,      /* K = 30 */
(PID.TID 0000.0001)                 8.890000000000001E+00,      /* K = 31 */
(PID.TID 0000.0001)                 9.910000000000000E+00,      /* K = 32 */
(PID.TID 0000.0001)                 1.109000000000000E+01,      /* K = 33 */
(PID.TID 0000.0001)                 1.242500000000000E+01,      /* K = 34 */
(PID.TID 0000.0001)                 1.391500000000000E+01,      /* K = 35 */
(PID.TID 0000.0001)                 1.555000000000000E+01,      /* K = 36 */
(PID.TID 0000.0001)                 1.732000000000000E+01,      /* K = 37 */
(PID.TID 0000.0001)                 1.921000000000000E+01,      /* K = 38 */
(PID.TID 0000.0001)                 2.119500000000000E+01,      /* K = 39 */
(PID.TID 0000.0001)                 2.325000000000000E+01,      /* K = 40 */
(PID.TID 0000.0001)                 2.536000000000000E+01,      /* K = 41 */
(PID.TID 0000.0001)                 2.750000000000000E+01,      /* K = 42 */
(PID.TID 0000.0001)                 2.964000000000000E+01,      /* K = 43 */
(PID.TID 0000.0001)                 3.175000000000000E+01,      /* K = 44 */
(PID.TID 0000.0001)                 3.380500000000000E+01,      /* K = 45 */
(PID.TID 0000.0001)                 3.579000000000000E+01,      /* K = 46 */
(PID.TID 0000.0001)                 3.768000000000000E+01,      /* K = 47 */
(PID.TID 0000.0001)                 3.945000000000000E+01,      /* K = 48 */
(PID.TID 0000.0001)                 4.108499999999999E+01,      /* K = 49 */
(PID.TID 0000.0001)                 4.257500000000000E+01,      /* K = 50 */
(PID.TID 0000.0001)                 4.391000000000000E+01,      /* K = 51 */
(PID.TID 0000.0001)                 4.509000000000000E+01,      /* K = 52 */
(PID.TID 0000.0001)                 4.611000000000000E+01,      /* K = 53 */
(PID.TID 0000.0001)                 4.698000000000000E+01,      /* K = 54 */
(PID.TID 0000.0001)                 4.770500000000000E+01,      /* K = 55 */
(PID.TID 0000.0001)                 4.829000000000000E+01,      /* K = 56 */
(PID.TID 0000.0001)                 4.875500000000000E+01,      /* K = 57 */
(PID.TID 0000.0001)                 4.912500000000000E+01,      /* K = 58 */
(PID.TID 0000.0001)                 4.941000000000000E+01,      /* K = 59 */
(PID.TID 0000.0001)                 4.962500000000000E+01,      /* K = 60 */
(PID.TID 0000.0001)                 4.981000000000000E+01,      /* K = 61 */
(PID.TID 0000.0001)                 5.000500000000000E+01,      /* K = 62 */
(PID.TID 0000.0001)                 5.026000000000000E+01,      /* K = 63 */
(PID.TID 0000.0001)                 5.066500000000000E+01,      /* K = 64 */
(PID.TID 0000.0001)                 5.130500000000000E+01,      /* K = 65 */
(PID.TID 0000.0001)                 5.228000000000000E+01,      /* K = 66 */
(PID.TID 0000.0001)                 5.370500000000000E+01,      /* K = 67 */
(PID.TID 0000.0001)                 5.566500000000000E+01,      /* K = 68 */
(PID.TID 0000.0001)                 5.823000000000000E+01,      /* K = 69 */
(PID.TID 0000.0001)                 6.141500000000000E+01,      /* K = 70 */
(PID.TID 0000.0001)                 6.521000000000001E+01,      /* K = 71 */
(PID.TID 0000.0001)                 6.954500000000000E+01,      /* K = 72 */
(PID.TID 0000.0001)                 7.433000000000000E+01,      /* K = 73 */
(PID.TID 0000.0001)                 7.947000000000000E+01,      /* K = 74 */
(PID.TID 0000.0001)                 8.486000000000000E+01,      /* K = 75 */
(PID.TID 0000.0001)                 9.041499999999999E+01,      /* K = 76 */
(PID.TID 0000.0001)                 9.606500000000000E+01,      /* K = 77 */
(PID.TID 0000.0001)                 1.017750000000000E+02,      /* K = 78 */
(PID.TID 0000.0001)                 1.075100000000000E+02,      /* K = 79 */
(PID.TID 0000.0001)                 1.132500000000000E+02,      /* K = 80 */
(PID.TID 0000.0001)                 1.189950000000000E+02,      /* K = 81 */
(PID.TID 0000.0001)                 1.247500000000000E+02,      /* K = 82 */
(PID.TID 0000.0001)                 1.305050000000000E+02,      /* K = 83 */
(PID.TID 0000.0001)                 1.362500000000000E+02,      /* K = 84 */
(PID.TID 0000.0001)                 1.419950000000000E+02,      /* K = 85 */
(PID.TID 0000.0001)                 1.477500000000000E+02,      /* K = 86 */
(PID.TID 0000.0001)                 1.535050000000000E+02,      /* K = 87 */
(PID.TID 0000.0001)                 1.592500000000000E+02,      /* K = 88 */
(PID.TID 0000.0001)                 1.649950000000000E+02,      /* K = 89 */
(PID.TID 0000.0001)                 1.707500000000000E+02,      /* K = 90 */
(PID.TID 0000.0001)                 1.765050000000000E+02,      /* K = 91 */
(PID.TID 0000.0001)                 1.822500000000000E+02,      /* K = 92 */
(PID.TID 0000.0001)                 1.879950000000000E+02,      /* K = 93 */
(PID.TID 0000.0001)                 1.937500000000000E+02,      /* K = 94 */
(PID.TID 0000.0001)                 1.995050000000000E+02,      /* K = 95 */
(PID.TID 0000.0001)                 2.052500000000000E+02,      /* K = 96 */
(PID.TID 0000.0001)                 2.109950000000000E+02,      /* K = 97 */
(PID.TID 0000.0001)                 2.167500000000000E+02,      /* K = 98 */
(PID.TID 0000.0001)                 2.225050000000000E+02,      /* K = 99 */
(PID.TID 0000.0001)                 2.282500000000000E+02,      /* K =100 */
(PID.TID 0000.0001)                 1.155600000000000E+02       /* K =101 */
(PID.TID 0000.0001)     ;
(PID.TID 0000.0001) drF =   /* W spacing ( units of r ) */
(PID.TID 0000.0001)    15 @  5.000000000000000E+00,             /* K =  1: 15 */
(PID.TID 0000.0001)     2 @  5.010000000000000E+00,             /* K = 16: 17 */
(PID.TID 0000.0001)                 5.020000000000000E+00,      /* K = 18 */
(PID.TID 0000.0001)                 5.040000000000000E+00,      /* K = 19 */
(PID.TID 0000.0001)                 5.070000000000000E+00,      /* K = 20 */
(PID.TID 0000.0001)                 5.120000000000000E+00,      /* K = 21 */
(PID.TID 0000.0001)                 5.200000000000000E+00,      /* K = 22 */
(PID.TID 0000.0001)                 5.310000000000000E+00,      /* K = 23 */
(PID.TID 0000.0001)                 5.490000000000000E+00,      /* K = 24 */
(PID.TID 0000.0001)                 5.720000000000000E+00,      /* K = 25 */
(PID.TID 0000.0001)                 6.040000000000000E+00,      /* K = 26 */
(PID.TID 0000.0001)                 6.450000000000000E+00,      /* K = 27 */
(PID.TID 0000.0001)                 6.970000000000000E+00,      /* K = 28 */
(PID.TID 0000.0001)                 7.620000000000000E+00,      /* K = 29 */
(PID.TID 0000.0001)                 8.420000000000000E+00,      /* K = 30 */
(PID.TID 0000.0001)                 9.359999999999999E+00,      /* K = 31 */
(PID.TID 0000.0001)                 1.046000000000000E+01,      /* K = 32 */
(PID.TID 0000.0001)                 1.172000000000000E+01,      /* K = 33 */
(PID.TID 0000.0001)                 1.313000000000000E+01,      /* K = 34 */
(PID.TID 0000.0001)                 1.470000000000000E+01,      /* K = 35 */
(PID.TID 0000.0001)                 1.640000000000000E+01,      /* K = 36 */
(PID.TID 0000.0001)                 1.824000000000000E+01,      /* K = 37 */
(PID.TID 0000.0001)                 2.018000000000000E+01,      /* K = 38 */
(PID.TID 0000.0001)                 2.221000000000000E+01,      /* K = 39 */
(PID.TID 0000.0001)                 2.429000000000000E+01,      /* K = 40 */
(PID.TID 0000.0001)                 2.643000000000000E+01,      /* K = 41 */
(PID.TID 0000.0001)                 2.857000000000000E+01,      /* K = 42 */
(PID.TID 0000.0001)                 3.071000000000000E+01,      /* K = 43 */
(PID.TID 0000.0001)                 3.279000000000000E+01,      /* K = 44 */
(PID.TID 0000.0001)                 3.482000000000000E+01,      /* K = 45 */
(PID.TID 0000.0001)                 3.676000000000000E+01,      /* K = 46 */
(PID.TID 0000.0001)                 3.860000000000000E+01,      /* K = 47 */
(PID.TID 0000.0001)                 4.030000000000000E+01,      /* K = 48 */
(PID.TID 0000.0001)                 4.187000000000000E+01,      /* K = 49 */
(PID.TID 0000.0001)                 4.328000000000000E+01,      /* K = 50 */
(PID.TID 0000.0001)                 4.454000000000000E+01,      /* K = 51 */
(PID.TID 0000.0001)                 4.564000000000000E+01,      /* K = 52 */
(PID.TID 0000.0001)                 4.658000000000000E+01,      /* K = 53 */
(PID.TID 0000.0001)                 4.738000000000000E+01,      /* K = 54 */
(PID.TID 0000.0001)                 4.803000000000000E+01,      /* K = 55 */
(PID.TID 0000.0001)                 4.855000000000000E+01,      /* K = 56 */
(PID.TID 0000.0001)                 4.896000000000000E+01,      /* K = 57 */
(PID.TID 0000.0001)                 4.929000000000000E+01,      /* K = 58 */
(PID.TID 0000.0001)                 4.953000000000000E+01,      /* K = 59 */
(PID.TID 0000.0001)                 4.972000000000000E+01,      /* K = 60 */
(PID.TID 0000.0001)                 4.990000000000000E+01,      /* K = 61 */
(PID.TID 0000.0001)                 5.011000000000000E+01,      /* K = 62 */
(PID.TID 0000.0001)                 5.041000000000000E+01,      /* K = 63 */
(PID.TID 0000.0001)                 5.092000000000000E+01,      /* K = 64 */
(PID.TID 0000.0001)                 5.169000000000000E+01,      /* K = 65 */
(PID.TID 0000.0001)                 5.287000000000000E+01,      /* K = 66 */
(PID.TID 0000.0001)                 5.454000000000000E+01,      /* K = 67 */
(PID.TID 0000.0001)                 5.679000000000000E+01,      /* K = 68 */
(PID.TID 0000.0001)                 5.967000000000000E+01,      /* K = 69 */
(PID.TID 0000.0001)                 6.316000000000000E+01,      /* K = 70 */
(PID.TID 0000.0001)                 6.726000000000001E+01,      /* K = 71 */
(PID.TID 0000.0001)                 7.183000000000000E+01,      /* K = 72 */
(PID.TID 0000.0001)                 7.683000000000000E+01,      /* K = 73 */
(PID.TID 0000.0001)                 8.211000000000000E+01,      /* K = 74 */
(PID.TID 0000.0001)                 8.761000000000000E+01,      /* K = 75 */
(PID.TID 0000.0001)                 9.322000000000000E+01,      /* K = 76 */
(PID.TID 0000.0001)                 9.891000000000000E+01,      /* K = 77 */
(PID.TID 0000.0001)                 1.046400000000000E+02,      /* K = 78 */
(PID.TID 0000.0001)                 1.103800000000000E+02,      /* K = 79 */
(PID.TID 0000.0001)                 1.161200000000000E+02,      /* K = 80 */
(PID.TID 0000.0001)                 1.218700000000000E+02,      /* K = 81 */
(PID.TID 0000.0001)                 1.276300000000000E+02,      /* K = 82 */
(PID.TID 0000.0001)                 1.333800000000000E+02,      /* K = 83 */
(PID.TID 0000.0001)                 1.391200000000000E+02,      /* K = 84 */
(PID.TID 0000.0001)                 1.448700000000000E+02,      /* K = 85 */
(PID.TID 0000.0001)                 1.506300000000000E+02,      /* K = 86 */
(PID.TID 0000.0001)                 1.563800000000000E+02,      /* K = 87 */
(PID.TID 0000.0001)                 1.621200000000000E+02,      /* K = 88 */
(PID.TID 0000.0001)                 1.678700000000000E+02,      /* K = 89 */
(PID.TID 0000.0001)                 1.736300000000000E+02,      /* K = 90 */
(PID.TID 0000.0001)                 1.793800000000000E+02,      /* K = 91 */
(PID.TID 0000.0001)                 1.851200000000000E+02,      /* K = 92 */
(PID.TID 0000.0001)                 1.908700000000000E+02,      /* K = 93 */
(PID.TID 0000.0001)                 1.966300000000000E+02,      /* K = 94 */
(PID.TID 0000.0001)                 2.023800000000000E+02,      /* K = 95 */
(PID.TID 0000.0001)                 2.081200000000000E+02,      /* K = 96 */
(PID.TID 0000.0001)                 2.138700000000000E+02,      /* K = 97 */
(PID.TID 0000.0001)                 2.196300000000000E+02,      /* K = 98 */
(PID.TID 0000.0001)                 2.253800000000000E+02,      /* K = 99 */
(PID.TID 0000.0001)                 2.311200000000000E+02       /* K =100 */
(PID.TID 0000.0001)     ;
(PID.TID 0000.0001) delX = /* U spacing ( m - cartesian, degrees - spherical ) */
(PID.TID 0000.0001)  2160 @  4.166666666666700E-02              /* I =   1:2160 */
(PID.TID 0000.0001)     ;
(PID.TID 0000.0001) delY = /* V spacing ( m - cartesian, degrees - spherical ) */
(PID.TID 0000.0001)                 3.423118591308594E-02,      /* J =  1 */
(PID.TID 0000.0001)                 3.422164916992188E-02,      /* J =  2 */
(PID.TID 0000.0001)                 3.421211242675781E-02,      /* J =  3 */
(PID.TID 0000.0001)      . . .
(PID.TID 0000.0001)                 3.283882141113281E-02,      /* J =133 */
(PID.TID 0000.0001)                 3.282928466796875E-02,      /* J =134 */
(PID.TID 0000.0001)                 3.281784057617188E-02,      /* J =135 */
(PID.TID 0000.0001)                 3.280639648437500E-02,      /* J =136 */
(PID.TID 0000.0001)                 3.279495239257812E-02,      /* J =137 */
(PID.TID 0000.0001)                 3.278350830078125E-02,      /* J =138 */
(PID.TID 0000.0001)      . . .
(PID.TID 0000.0001)                 3.132247924804688E-02,      /* J =268 */
(PID.TID 0000.0001)                 3.130722045898438E-02,      /* J =269 */
(PID.TID 0000.0001)                 3.129959106445312E-02,      /* J =270 */
(PID.TID 0000.0001)                 3.128814697265625E-02,      /* J =271 */
(PID.TID 0000.0001)                 3.127288818359375E-02,      /* J =272 */
(PID.TID 0000.0001)                 3.126525878906250E-02,      /* J =273 */
(PID.TID 0000.0001)      . . .
(PID.TID 0000.0001)                 2.974700927734375E-02,      /* J =403 */
(PID.TID 0000.0001)                 2.973175048828125E-02,      /* J =404 */
(PID.TID 0000.0001)                 2.971649169921875E-02,      /* J =405 */
(PID.TID 0000.0001)                 2.970886230468750E-02,      /* J =406 */
(PID.TID 0000.0001)                 2.969741821289062E-02,      /* J =407 */
(PID.TID 0000.0001)                 2.968597412109375E-02,      /* J =408 */
(PID.TID 0000.0001)      . . .
(PID.TID 0000.0001)                 2.813720703125000E-02,      /* J =538 */
(PID.TID 0000.0001)                 2.812576293945312E-02,      /* J =539 */
(PID.TID 0000.0001)                 2.811431884765625E-02       /* J =540 */
(PID.TID 0000.0001)     ;
(PID.TID 0000.0001) xgOrigin = /* X-axis origin of West  edge (cartesian: m, lat-lon: deg) */
(PID.TID 0000.0001)                -8.300000000000000E+01
(PID.TID 0000.0001)     ;
(PID.TID 0000.0001) ygOrigin = /* Y-axis origin of South edge (cartesian: m, lat-lon: deg) */
(PID.TID 0000.0001)                 2.665005493164062E+01
(PID.TID 0000.0001)     ;
(PID.TID 0000.0001) rSphere =  /* Radius ( ignored - cartesian, m - spherical ) */
(PID.TID 0000.0001)                 6.370000000000000E+06
(PID.TID 0000.0001)     ;
(PID.TID 0000.0001) deepAtmosphere = /* Deep/Shallow Atmosphere flag (True/False) */
(PID.TID 0000.0001)                   F
(PID.TID 0000.0001)     ;
(PID.TID 0000.0001) xC =  /* xC(:,1,:,1) : P-point X coord ( deg. or m if cartesian) */
(PID.TID 0000.0001)                -8.297916666666666E+01,      /* I =  1 */
(PID.TID 0000.0001)                -8.293750000000000E+01,      /* I =  2 */
(PID.TID 0000.0001)                -8.289583333333331E+01,      /* I =  3 */
(PID.TID 0000.0001)      . . .
(PID.TID 0000.0001)                -8.214583333333323E+01,      /* I = 21 */
(PID.TID 0000.0001)                -8.210416666666657E+01,      /* I = 22 */
(PID.TID 0000.0001)                -8.206249999999989E+01,      /* I = 23 */
(PID.TID 0000.0001)                -8.202083333333323E+01,      /* I = 24 */
(PID.TID 0000.0001)                -8.197916666666654E+01,      /* I = 25 */
(PID.TID 0000.0001)                -8.193749999999989E+01,      /* I = 26 */
(PID.TID 0000.0001)      . . .
(PID.TID 0000.0001)                -8.122916666666646E+01,      /* I = 43 */
(PID.TID 0000.0001)                -8.118749999999980E+01,      /* I = 44 */
(PID.TID 0000.0001)                -8.114583333333312E+01,      /* I = 45 */
(PID.TID 0000.0001)                -8.110416666666646E+01,      /* I = 46 */
(PID.TID 0000.0001)                -8.106249999999977E+01,      /* I = 47 */
(PID.TID 0000.0001)                -8.102083333333312E+01,      /* I = 48 */
(PID.TID 0000.0001)      . . .
(PID.TID 0000.0001)                -8.031249999999969E+01,      /* I = 65 */
(PID.TID 0000.0001)                -8.027083333333303E+01,      /* I = 66 */
(PID.TID 0000.0001)                -8.022916666666634E+01,      /* I = 67 */
(PID.TID 0000.0001)                -8.018749999999969E+01,      /* I = 68 */
(PID.TID 0000.0001)                -8.014583333333300E+01,      /* I = 69 */
(PID.TID 0000.0001)                -8.010416666666634E+01,      /* I = 70 */
(PID.TID 0000.0001)      . . .
(PID.TID 0000.0001)                -7.935416666666626E+01,      /* I = 88 */
(PID.TID 0000.0001)                -7.931249999999957E+01,      /* I = 89 */
(PID.TID 0000.0001)                -7.927083333333292E+01       /* I = 90 */
(PID.TID 0000.0001)     ;
(PID.TID 0000.0001) yC =  /* yC(1,:,1,:) : P-point Y coord ( deg. or m if cartesian) */
(PID.TID 0000.0001)                 2.666717052459717E+01,      /* J =  1 */
(PID.TID 0000.0001)                 2.670139694213867E+01,      /* J =  2 */
(PID.TID 0000.0001)                 2.673561382293701E+01,      /* J =  3 */
(PID.TID 0000.0001)      . . .
(PID.TID 0000.0001)                 2.734977054595947E+01,      /* J = 21 */
(PID.TID 0000.0001)                 2.738379383087158E+01,      /* J = 22 */
(PID.TID 0000.0001)                 2.741780662536621E+01,      /* J = 23 */
(PID.TID 0000.0001)                 2.745180892944336E+01,      /* J = 24 */
(PID.TID 0000.0001)                 2.748580074310303E+01,      /* J = 25 */
(PID.TID 0000.0001)                 2.751978206634521E+01,      /* J = 26 */
(PID.TID 0000.0001)      . . .
(PID.TID 0000.0001)                 2.809589099884033E+01,      /* J = 43 */
(PID.TID 0000.0001)                 2.812968635559082E+01,      /* J = 44 */
(PID.TID 0000.0001)                 2.816347122192383E+01,      /* J = 45 */
(PID.TID 0000.0001)                 2.819724559783936E+01,      /* J = 46 */
(PID.TID 0000.0001)                 2.823101043701172E+01,      /* J = 47 */
(PID.TID 0000.0001)                 2.826476478576660E+01,      /* J = 48 */
(PID.TID 0000.0001)      . . .
(PID.TID 0000.0001)                 2.883697605133057E+01,      /* J = 65 */
(PID.TID 0000.0001)                 2.887054157257080E+01,      /* J = 66 */
(PID.TID 0000.0001)                 2.890409564971924E+01,      /* J = 67 */
(PID.TID 0000.0001)                 2.893763923645020E+01,      /* J = 68 */
(PID.TID 0000.0001)                 2.897117233276367E+01,      /* J = 69 */
(PID.TID 0000.0001)                 2.900469493865967E+01,      /* J = 70 */
(PID.TID 0000.0001)      . . .
(PID.TID 0000.0001)                 2.960628890991211E+01,      /* J = 88 */
(PID.TID 0000.0001)                 2.963960933685303E+01,      /* J = 89 */
(PID.TID 0000.0001)                 2.967291927337646E+01       /* J = 90 */
(PID.TID 0000.0001)     ;
(PID.TID 0000.0001) rcoord = /* P-point R coordinate (  units of r ) */
(PID.TID 0000.0001)                -2.500000000000000E+00,      /* K =  1 */
(PID.TID 0000.0001)                -7.500000000000000E+00,      /* K =  2 */
(PID.TID 0000.0001)                -1.250000000000000E+01,      /* K =  3 */
(PID.TID 0000.0001)                -1.750000000000000E+01,      /* K =  4 */
(PID.TID 0000.0001)                -2.250000000000000E+01,      /* K =  5 */
(PID.TID 0000.0001)                -2.750000000000000E+01,      /* K =  6 */
(PID.TID 0000.0001)                -3.250000000000000E+01,      /* K =  7 */
(PID.TID 0000.0001)                -3.750000000000000E+01,      /* K =  8 */
(PID.TID 0000.0001)                -4.250000000000000E+01,      /* K =  9 */
(PID.TID 0000.0001)                -4.750000000000000E+01,      /* K = 10 */
(PID.TID 0000.0001)                -5.250000000000000E+01,      /* K = 11 */
(PID.TID 0000.0001)                -5.750000000000000E+01,      /* K = 12 */
(PID.TID 0000.0001)                -6.250000000000000E+01,      /* K = 13 */
(PID.TID 0000.0001)                -6.750000000000000E+01,      /* K = 14 */
(PID.TID 0000.0001)                -7.250000000000000E+01,      /* K = 15 */
(PID.TID 0000.0001)                -7.750500000000000E+01,      /* K = 16 */
(PID.TID 0000.0001)                -8.251500000000000E+01,      /* K = 17 */
(PID.TID 0000.0001)                -8.753000000000000E+01,      /* K = 18 */
(PID.TID 0000.0001)                -9.256000000000000E+01,      /* K = 19 */
(PID.TID 0000.0001)                -9.761500000000001E+01,      /* K = 20 */
(PID.TID 0000.0001)                -1.027100000000000E+02,      /* K = 21 */
(PID.TID 0000.0001)                -1.078700000000000E+02,      /* K = 22 */
(PID.TID 0000.0001)                -1.131250000000000E+02,      /* K = 23 */
(PID.TID 0000.0001)                -1.185250000000000E+02,      /* K = 24 */
(PID.TID 0000.0001)                -1.241300000000000E+02,      /* K = 25 */
(PID.TID 0000.0001)                -1.300100000000000E+02,      /* K = 26 */
(PID.TID 0000.0001)                -1.362550000000000E+02,      /* K = 27 */
(PID.TID 0000.0001)                -1.429650000000000E+02,      /* K = 28 */
(PID.TID 0000.0001)                -1.502600000000000E+02,      /* K = 29 */
(PID.TID 0000.0001)                -1.582800000000000E+02,      /* K = 30 */
(PID.TID 0000.0001)                -1.671700000000000E+02,      /* K = 31 */
(PID.TID 0000.0001)                -1.770800000000000E+02,      /* K = 32 */
(PID.TID 0000.0001)                -1.881700000000000E+02,      /* K = 33 */
(PID.TID 0000.0001)                -2.005950000000000E+02,      /* K = 34 */
(PID.TID 0000.0001)                -2.145100000000000E+02,      /* K = 35 */
(PID.TID 0000.0001)                -2.300600000000000E+02,      /* K = 36 */
(PID.TID 0000.0001)                -2.473800000000000E+02,      /* K = 37 */
(PID.TID 0000.0001)                -2.665900000000000E+02,      /* K = 38 */
(PID.TID 0000.0001)                -2.877850000000000E+02,      /* K = 39 */
(PID.TID 0000.0001)                -3.110350000000000E+02,      /* K = 40 */
(PID.TID 0000.0001)                -3.363950000000000E+02,      /* K = 41 */
(PID.TID 0000.0001)                -3.638950000000000E+02,      /* K = 42 */
(PID.TID 0000.0001)                -3.935350000000000E+02,      /* K = 43 */
(PID.TID 0000.0001)                -4.252850000000000E+02,      /* K = 44 */
(PID.TID 0000.0001)                -4.590900000000000E+02,      /* K = 45 */
(PID.TID 0000.0001)                -4.948800000000001E+02,      /* K = 46 */
(PID.TID 0000.0001)                -5.325600000000001E+02,      /* K = 47 */
(PID.TID 0000.0001)                -5.720100000000001E+02,      /* K = 48 */
(PID.TID 0000.0001)                -6.130950000000001E+02,      /* K = 49 */
(PID.TID 0000.0001)                -6.556700000000002E+02,      /* K = 50 */
(PID.TID 0000.0001)                -6.995800000000002E+02,      /* K = 51 */
(PID.TID 0000.0001)                -7.446700000000002E+02,      /* K = 52 */
(PID.TID 0000.0001)                -7.907800000000002E+02,      /* K = 53 */
(PID.TID 0000.0001)                -8.377600000000002E+02,      /* K = 54 */
(PID.TID 0000.0001)                -8.854650000000003E+02,      /* K = 55 */
(PID.TID 0000.0001)                -9.337550000000002E+02,      /* K = 56 */
(PID.TID 0000.0001)                -9.825100000000002E+02,      /* K = 57 */
(PID.TID 0000.0001)                -1.031635000000000E+03,      /* K = 58 */
(PID.TID 0000.0001)                -1.081045000000000E+03,      /* K = 59 */
(PID.TID 0000.0001)                -1.130670000000000E+03,      /* K = 60 */
(PID.TID 0000.0001)                -1.180480000000000E+03,      /* K = 61 */
(PID.TID 0000.0001)                -1.230485000000000E+03,      /* K = 62 */
(PID.TID 0000.0001)                -1.280745000000000E+03,      /* K = 63 */
(PID.TID 0000.0001)                -1.331410000000000E+03,      /* K = 64 */
(PID.TID 0000.0001)                -1.382715000000000E+03,      /* K = 65 */
(PID.TID 0000.0001)                -1.434995000000000E+03,      /* K = 66 */
(PID.TID 0000.0001)                -1.488700000000000E+03,      /* K = 67 */
(PID.TID 0000.0001)                -1.544365000000000E+03,      /* K = 68 */
(PID.TID 0000.0001)                -1.602595000000000E+03,      /* K = 69 */
(PID.TID 0000.0001)                -1.664010000000000E+03,      /* K = 70 */
(PID.TID 0000.0001)                -1.729220000000000E+03,      /* K = 71 */
(PID.TID 0000.0001)                -1.798765000000000E+03,      /* K = 72 */
(PID.TID 0000.0001)                -1.873095000000000E+03,      /* K = 73 */
(PID.TID 0000.0001)                -1.952565000000000E+03,      /* K = 74 */
(PID.TID 0000.0001)                -2.037425000000000E+03,      /* K = 75 */
(PID.TID 0000.0001)                -2.127840000000000E+03,      /* K = 76 */
(PID.TID 0000.0001)                -2.223905000000000E+03,      /* K = 77 */
(PID.TID 0000.0001)                -2.325680000000000E+03,      /* K = 78 */
(PID.TID 0000.0001)                -2.433190000000001E+03,      /* K = 79 */
(PID.TID 0000.0001)                -2.546440000000001E+03,      /* K = 80 */
(PID.TID 0000.0001)                -2.665435000000000E+03,      /* K = 81 */
(PID.TID 0000.0001)                -2.790185000000000E+03,      /* K = 82 */
(PID.TID 0000.0001)                -2.920690000000001E+03,      /* K = 83 */
(PID.TID 0000.0001)                -3.056940000000001E+03,      /* K = 84 */
(PID.TID 0000.0001)                -3.198935000000000E+03,      /* K = 85 */
(PID.TID 0000.0001)                -3.346685000000000E+03,      /* K = 86 */
(PID.TID 0000.0001)                -3.500190000000001E+03,      /* K = 87 */
(PID.TID 0000.0001)                -3.659440000000001E+03,      /* K = 88 */
(PID.TID 0000.0001)                -3.824435000000000E+03,      /* K = 89 */
(PID.TID 0000.0001)                -3.995185000000000E+03,      /* K = 90 */
(PID.TID 0000.0001)                -4.171690000000001E+03,      /* K = 91 */
(PID.TID 0000.0001)                -4.353940000000001E+03,      /* K = 92 */
(PID.TID 0000.0001)                -4.541935000000000E+03,      /* K = 93 */
(PID.TID 0000.0001)                -4.735685000000000E+03,      /* K = 94 */
(PID.TID 0000.0001)                -4.935190000000001E+03,      /* K = 95 */
(PID.TID 0000.0001)                -5.140440000000001E+03,      /* K = 96 */
(PID.TID 0000.0001)                -5.351435000000000E+03,      /* K = 97 */
(PID.TID 0000.0001)                -5.568185000000000E+03,      /* K = 98 */
(PID.TID 0000.0001)                -5.790690000000001E+03,      /* K = 99 */
(PID.TID 0000.0001)                -6.018940000000001E+03       /* K =100 */
(PID.TID 0000.0001)     ;
(PID.TID 0000.0001) rF =   /* W-Interf. R coordinate (  units of r ) */
(PID.TID 0000.0001)                 0.000000000000000E+00,      /* K =  1 */
(PID.TID 0000.0001)                -5.000000000000000E+00,      /* K =  2 */
(PID.TID 0000.0001)                -1.000000000000000E+01,      /* K =  3 */
(PID.TID 0000.0001)                -1.500000000000000E+01,      /* K =  4 */
(PID.TID 0000.0001)                -2.000000000000000E+01,      /* K =  5 */
(PID.TID 0000.0001)                -2.500000000000000E+01,      /* K =  6 */
(PID.TID 0000.0001)                -3.000000000000000E+01,      /* K =  7 */
(PID.TID 0000.0001)                -3.500000000000000E+01,      /* K =  8 */
(PID.TID 0000.0001)                -4.000000000000000E+01,      /* K =  9 */
(PID.TID 0000.0001)                -4.500000000000000E+01,      /* K = 10 */
(PID.TID 0000.0001)                -5.000000000000000E+01,      /* K = 11 */
(PID.TID 0000.0001)                -5.500000000000000E+01,      /* K = 12 */
(PID.TID 0000.0001)                -6.000000000000000E+01,      /* K = 13 */
(PID.TID 0000.0001)                -6.500000000000000E+01,      /* K = 14 */
(PID.TID 0000.0001)                -7.000000000000000E+01,      /* K = 15 */
(PID.TID 0000.0001)                -7.500000000000000E+01,      /* K = 16 */
(PID.TID 0000.0001)                -8.001000000000001E+01,      /* K = 17 */
(PID.TID 0000.0001)                -8.502000000000001E+01,      /* K = 18 */
(PID.TID 0000.0001)                -9.004000000000001E+01,      /* K = 19 */
(PID.TID 0000.0001)                -9.508000000000001E+01,      /* K = 20 */
(PID.TID 0000.0001)                -1.001500000000000E+02,      /* K = 21 */
(PID.TID 0000.0001)                -1.052700000000000E+02,      /* K = 22 */
(PID.TID 0000.0001)                -1.104700000000000E+02,      /* K = 23 */
(PID.TID 0000.0001)                -1.157800000000000E+02,      /* K = 24 */
(PID.TID 0000.0001)                -1.212700000000000E+02,      /* K = 25 */
(PID.TID 0000.0001)                -1.269900000000000E+02,      /* K = 26 */
(PID.TID 0000.0001)                -1.330300000000000E+02,      /* K = 27 */
(PID.TID 0000.0001)                -1.394800000000000E+02,      /* K = 28 */
(PID.TID 0000.0001)                -1.464500000000000E+02,      /* K = 29 */
(PID.TID 0000.0001)                -1.540700000000000E+02,      /* K = 30 */
(PID.TID 0000.0001)                -1.624900000000000E+02,      /* K = 31 */
(PID.TID 0000.0001)                -1.718500000000000E+02,      /* K = 32 */
(PID.TID 0000.0001)                -1.823100000000000E+02,      /* K = 33 */
(PID.TID 0000.0001)                -1.940300000000000E+02,      /* K = 34 */
(PID.TID 0000.0001)                -2.071600000000000E+02,      /* K = 35 */
(PID.TID 0000.0001)                -2.218600000000000E+02,      /* K = 36 */
(PID.TID 0000.0001)                -2.382600000000000E+02,      /* K = 37 */
(PID.TID 0000.0001)                -2.564999999999999E+02,      /* K = 38 */
(PID.TID 0000.0001)                -2.766799999999999E+02,      /* K = 39 */
(PID.TID 0000.0001)                -2.988899999999999E+02,      /* K = 40 */
(PID.TID 0000.0001)                -3.231799999999999E+02,      /* K = 41 */
(PID.TID 0000.0001)                -3.496100000000000E+02,      /* K = 42 */
(PID.TID 0000.0001)                -3.781799999999999E+02,      /* K = 43 */
(PID.TID 0000.0001)                -4.088899999999999E+02,      /* K = 44 */
(PID.TID 0000.0001)                -4.416799999999999E+02,      /* K = 45 */
(PID.TID 0000.0001)                -4.764999999999999E+02,      /* K = 46 */
(PID.TID 0000.0001)                -5.132600000000000E+02,      /* K = 47 */
(PID.TID 0000.0001)                -5.518600000000000E+02,      /* K = 48 */
(PID.TID 0000.0001)                -5.921600000000000E+02,      /* K = 49 */
(PID.TID 0000.0001)                -6.340300000000000E+02,      /* K = 50 */
(PID.TID 0000.0001)                -6.773099999999999E+02,      /* K = 51 */
(PID.TID 0000.0001)                -7.218499999999999E+02,      /* K = 52 */
(PID.TID 0000.0001)                -7.674899999999999E+02,      /* K = 53 */
(PID.TID 0000.0001)                -8.140699999999999E+02,      /* K = 54 */
(PID.TID 0000.0001)                -8.614499999999999E+02,      /* K = 55 */
(PID.TID 0000.0001)                -9.094799999999999E+02,      /* K = 56 */
(PID.TID 0000.0001)                -9.580299999999999E+02,      /* K = 57 */
(PID.TID 0000.0001)                -1.006990000000000E+03,      /* K = 58 */
(PID.TID 0000.0001)                -1.056280000000000E+03,      /* K = 59 */
(PID.TID 0000.0001)                -1.105810000000000E+03,      /* K = 60 */
(PID.TID 0000.0001)                -1.155530000000000E+03,      /* K = 61 */
(PID.TID 0000.0001)                -1.205430000000000E+03,      /* K = 62 */
(PID.TID 0000.0001)                -1.255540000000000E+03,      /* K = 63 */
(PID.TID 0000.0001)                -1.305950000000000E+03,      /* K = 64 */
(PID.TID 0000.0001)                -1.356870000000000E+03,      /* K = 65 */
(PID.TID 0000.0001)                -1.408560000000000E+03,      /* K = 66 */
(PID.TID 0000.0001)                -1.461430000000000E+03,      /* K = 67 */
(PID.TID 0000.0001)                -1.515970000000000E+03,      /* K = 68 */
(PID.TID 0000.0001)                -1.572760000000000E+03,      /* K = 69 */
(PID.TID 0000.0001)                -1.632430000000000E+03,      /* K = 70 */
(PID.TID 0000.0001)                -1.695590000000000E+03,      /* K = 71 */
(PID.TID 0000.0001)                -1.762850000000000E+03,      /* K = 72 */
(PID.TID 0000.0001)                -1.834680000000000E+03,      /* K = 73 */
(PID.TID 0000.0001)                -1.911510000000000E+03,      /* K = 74 */
(PID.TID 0000.0001)                -1.993620000000000E+03,      /* K = 75 */
(PID.TID 0000.0001)                -2.081230000000000E+03,      /* K = 76 */
(PID.TID 0000.0001)                -2.174450000000000E+03,      /* K = 77 */
(PID.TID 0000.0001)                -2.273360000000000E+03,      /* K = 78 */
(PID.TID 0000.0001)                -2.378000000000000E+03,      /* K = 79 */
(PID.TID 0000.0001)                -2.488380000000000E+03,      /* K = 80 */
(PID.TID 0000.0001)                -2.604500000000000E+03,      /* K = 81 */
(PID.TID 0000.0001)                -2.726369999999999E+03,      /* K = 82 */
(PID.TID 0000.0001)                -2.854000000000000E+03,      /* K = 83 */
(PID.TID 0000.0001)                -2.987380000000000E+03,      /* K = 84 */
(PID.TID 0000.0001)                -3.126500000000000E+03,      /* K = 85 */
(PID.TID 0000.0001)                -3.271369999999999E+03,      /* K = 86 */
(PID.TID 0000.0001)                -3.422000000000000E+03,      /* K = 87 */
(PID.TID 0000.0001)                -3.578380000000000E+03,      /* K = 88 */
(PID.TID 0000.0001)                -3.740500000000000E+03,      /* K = 89 */
(PID.TID 0000.0001)                -3.908369999999999E+03,      /* K = 90 */
(PID.TID 0000.0001)                -4.082000000000000E+03,      /* K = 91 */
(PID.TID 0000.0001)                -4.261379999999999E+03,      /* K = 92 */
(PID.TID 0000.0001)                -4.446499999999999E+03,      /* K = 93 */
(PID.TID 0000.0001)                -4.637369999999999E+03,      /* K = 94 */
(PID.TID 0000.0001)                -4.833999999999999E+03,      /* K = 95 */
(PID.TID 0000.0001)                -5.036379999999999E+03,      /* K = 96 */
(PID.TID 0000.0001)                -5.244499999999999E+03,      /* K = 97 */
(PID.TID 0000.0001)                -5.458369999999999E+03,      /* K = 98 */
(PID.TID 0000.0001)                -5.677999999999999E+03,      /* K = 99 */
(PID.TID 0000.0001)                -5.903379999999999E+03,      /* K =100 */
(PID.TID 0000.0001)                -6.134499999999999E+03       /* K =101 */
(PID.TID 0000.0001)     ;
(PID.TID 0000.0001) deepFacC = /* deep-model grid factor @ cell-Center (-) */
(PID.TID 0000.0001)   100 @  1.000000000000000E+00              /* K =  1:100 */
(PID.TID 0000.0001)     ;
(PID.TID 0000.0001) deepFacF = /* deep-model grid factor @ W-Interface (-) */
(PID.TID 0000.0001)   101 @  1.000000000000000E+00              /* K =  1:101 */
(PID.TID 0000.0001)     ;
(PID.TID 0000.0001) rVel2wUnit = /* convert units: rVel -> wSpeed (=1 if z-coord)*/
(PID.TID 0000.0001)   101 @  1.000000000000000E+00              /* K =  1:101 */
(PID.TID 0000.0001)     ;
(PID.TID 0000.0001) wUnit2rVel = /* convert units: wSpeed -> rVel (=1 if z-coord)*/
(PID.TID 0000.0001)   101 @  1.000000000000000E+00              /* K =  1:101 */
(PID.TID 0000.0001)     ;
(PID.TID 0000.0001) dBdrRef = /* Vertical grad. of reference buoyancy [(m/s/r)^2] */
(PID.TID 0000.0001)     5 @  0.000000000000000E+00,             /* K =  1:  5 */
(PID.TID 0000.0001)                 9.694282843778342E-06,      /* K =  6 */
(PID.TID 0000.0001)                 2.426513223807763E-05,      /* K =  7 */
(PID.TID 0000.0001)                 1.452975530153167E-05,      /* K =  8 */
(PID.TID 0000.0001)                 9.681498625854328E-06,      /* K =  9 */
(PID.TID 0000.0001)                 4.842099844624020E-05,      /* K = 10 */
(PID.TID 0000.0001)                 6.280856330023614E-05,      /* K = 11 */
(PID.TID 0000.0001)                 8.185617076656702E-05,      /* K = 12 */
(PID.TID 0000.0001)                 1.295252644691406E-04,      /* K = 13 */
(PID.TID 0000.0001)                 1.095351351384002E-04,      /* K = 14 */
(PID.TID 0000.0001)                 1.329169312007239E-04,      /* K = 15 */
(PID.TID 0000.0001)                 1.367041979360881E-04,      /* K = 16 */
(PID.TID 0000.0001)                 1.211727126593573E-04,      /* K = 17 */
(PID.TID 0000.0001)                 1.302265701121417E-04,      /* K = 18 */
(PID.TID 0000.0001)                 1.190854314588815E-04,      /* K = 19 */
(PID.TID 0000.0001)                 1.132023267377615E-04,      /* K = 20 */
(PID.TID 0000.0001)                 1.071632265654582E-04,      /* K = 21 */
(PID.TID 0000.0001)                 1.051393672457803E-04,      /* K = 22 */
(PID.TID 0000.0001)                 1.025752720636568E-04,      /* K = 23 */
(PID.TID 0000.0001)                 9.917395824143918E-05,      /* K = 24 */
(PID.TID 0000.0001)                 9.104030067387556E-05,      /* K = 25 */
(PID.TID 0000.0001)                 8.624441260795840E-05,      /* K = 26 */
(PID.TID 0000.0001)                 8.413036901537412E-05,      /* K = 27 */
(PID.TID 0000.0001)                 6.366728012651445E-05,      /* K = 28 */
(PID.TID 0000.0001)                 5.812092618380799E-05,      /* K = 29 */
(PID.TID 0000.0001)                 5.507951137016039E-05,      /* K = 30 */
(PID.TID 0000.0001)                 4.695510592930360E-05,      /* K = 31 */
(PID.TID 0000.0001)                 4.596409715692217E-05,      /* K = 32 */
(PID.TID 0000.0001)                 4.072795425761271E-05,      /* K = 33 */
(PID.TID 0000.0001)                 3.175298295526856E-05,      /* K = 34 */
(PID.TID 0000.0001)                 3.093452381022950E-05,      /* K = 35 */
(PID.TID 0000.0001)                 2.864003459600112E-05,      /* K = 36 */
(PID.TID 0000.0001)                 2.767315329576147E-05,      /* K = 37 */
(PID.TID 0000.0001)                 2.463000191580109E-05,      /* K = 38 */
(PID.TID 0000.0001)                 2.475053767167416E-05,      /* K = 39 */
(PID.TID 0000.0001)                 1.906506350221241E-05,      /* K = 40 */
(PID.TID 0000.0001)                 1.865582618722828E-05,      /* K = 41 */
(PID.TID 0000.0001)                 1.823366094760355E-05,      /* K = 42 */
(PID.TID 0000.0001)                 1.471037885515795E-05,      /* K = 43 */
(PID.TID 0000.0001)                 1.630603945735049E-05,      /* K = 44 */
(PID.TID 0000.0001)                 1.384745352787863E-05,      /* K = 45 */
(PID.TID 0000.0001)                 1.226594411185851E-05,      /* K = 46 */
(PID.TID 0000.0001)                 1.225310460290910E-05,      /* K = 47 */
(PID.TID 0000.0001)                 1.223011113144029E-05,      /* K = 48 */
(PID.TID 0000.0001)                 1.061638239990844E-05,      /* K = 49 */
(PID.TID 0000.0001)                 1.070650633014499E-05,      /* K = 50 */
(PID.TID 0000.0001)                 9.357472423340062E-06,      /* K = 51 */
(PID.TID 0000.0001)                 9.812756875994976E-06,      /* K = 52 */
(PID.TID 0000.0001)                 9.364680965538371E-06,      /* K = 53 */
(PID.TID 0000.0001)                 6.430982300518885E-06,      /* K = 54 */
(PID.TID 0000.0001)                 8.970058816087760E-06,      /* K = 55 */
(PID.TID 0000.0001)                 8.398462027768182E-06,      /* K = 56 */
(PID.TID 0000.0001)                 7.294531901104187E-06,      /* K = 57 */
(PID.TID 0000.0001)                 8.642565592484861E-06,      /* K = 58 */
(PID.TID 0000.0001)                 6.405731826441176E-06,      /* K = 59 */
(PID.TID 0000.0001)                 8.743452988220992E-06,      /* K = 60 */
(PID.TID 0000.0001)                 6.590306221026928E-06,      /* K = 61 */
(PID.TID 0000.0001)                 7.462277694900194E-06,      /* K = 62 */
(PID.TID 0000.0001)                 5.625478499738029E-06,      /* K = 63 */
(PID.TID 0000.0001)                 6.494457456351866E-06,      /* K = 64 */
(PID.TID 0000.0001)                 5.872364624284492E-06,      /* K = 65 */
(PID.TID 0000.0001)                 5.495436518643386E-06,      /* K = 66 */
(PID.TID 0000.0001)                 5.094601592541214E-06,      /* K = 67 */
(PID.TID 0000.0001)                 4.437172619322077E-06,      /* K = 68 */
(PID.TID 0000.0001)                 4.016940542409763E-06,      /* K = 69 */
(PID.TID 0000.0001)                 4.028908121728164E-06,      /* K = 70 */
(PID.TID 0000.0001)                 2.246388502686123E-06,      /* K = 71 */
(PID.TID 0000.0001)                 2.998142894531076E-06,      /* K = 72 */
(PID.TID 0000.0001)                 2.815413573924730E-06,      /* K = 73 */
(PID.TID 0000.0001)                 2.814329879263964E-06,      /* K = 74 */
(PID.TID 0000.0001)                 2.327158902006369E-06,      /* K = 75 */
(PID.TID 0000.0001)                 1.523559191918705E-06,      /* K = 76 */
(PID.TID 0000.0001)                 2.223754279938488E-06,      /* K = 77 */
(PID.TID 0000.0001)                 1.243572598777220E-06,      /* K = 78 */
(PID.TID 0000.0001)                 1.884009398486976E-06,      /* K = 79 */
(PID.TID 0000.0001)                 1.146309977456730E-06,      /* K = 80 */
(PID.TID 0000.0001)                 9.836409573498765E-07,      /* K = 81 */
(PID.TID 0000.0001)                 1.666564082034753E-06,      /* K = 82 */
(PID.TID 0000.0001)                 8.096789666921265E-07,      /* K = 83 */
(PID.TID 0000.0001)                 9.015806361848934E-07,      /* K = 84 */
(PID.TID 0000.0001)                 9.899996711216439E-07,      /* K = 85 */
(PID.TID 0000.0001)                 1.360959195968683E-06,      /* K = 86 */
(PID.TID 0000.0001)                 3.633635105266278E-07,      /* K = 87 */
(PID.TID 0000.0001)                 7.257552276248978E-07,      /* K = 88 */
(PID.TID 0000.0001)                 8.165089567519712E-07,      /* K = 89 */
(PID.TID 0000.0001)                 7.043987264958734E-07,      /* K = 90 */
(PID.TID 0000.0001)                 6.956983617110328E-07,      /* K = 91 */
(PID.TID 0000.0001)                 6.880703959048398E-07,      /* K = 92 */
(PID.TID 0000.0001)                 6.813676413074075E-07,      /* K = 93 */
(PID.TID 0000.0001)                 6.754628223828996E-07,      /* K = 94 */
(PID.TID 0000.0001)                 3.049729588883796E-07,      /* K = 95 */
(PID.TID 0000.0001)                 6.657955553385863E-07,      /* K = 96 */
(PID.TID 0000.0001)                 5.675084375793845E-07,      /* K = 97 */
(PID.TID 0000.0001)                 3.767262833194376E-07,      /* K = 98 */
(PID.TID 0000.0001)                 2.816808424830599E-07,      /* K = 99 */
(PID.TID 0000.0001)                 1.873891169846885E-07       /* K =100 */
(PID.TID 0000.0001)     ;
(PID.TID 0000.0001) rotateGrid = /* use rotated grid ( True/False ) */
(PID.TID 0000.0001)                   F
(PID.TID 0000.0001)     ;
(PID.TID 0000.0001) phiEuler = /* Euler angle, rotation about original z-coordinate [rad] */
(PID.TID 0000.0001)                 0.000000000000000E+00
(PID.TID 0000.0001)     ;
(PID.TID 0000.0001) thetaEuler = /* Euler angle, rotation about new x-coordinate [rad] */
(PID.TID 0000.0001)                 0.000000000000000E+00
(PID.TID 0000.0001)     ;
(PID.TID 0000.0001) psiEuler = /* Euler angle, rotation about new z-coordinate [rad] */
(PID.TID 0000.0001)                 0.000000000000000E+00
(PID.TID 0000.0001)     ;
(PID.TID 0000.0001) dxF =  /* dxF(:,1,:,1) ( units: m ) */
(PID.TID 0000.0001)    90 @  4.139640844360528E+03              /* I =  1: 90 */
(PID.TID 0000.0001)     ;
(PID.TID 0000.0001) dxF =  /* dxF(1,:,1,:) ( units: m ) */
(PID.TID 0000.0001)                 4.139640844360528E+03,      /* J =  1 */
(PID.TID 0000.0001)                 4.138398156068276E+03,      /* J =  2 */
(PID.TID 0000.0001)                 4.137154337892096E+03,      /* J =  3 */
(PID.TID 0000.0001)      . . .
(PID.TID 0000.0001)                 4.114578631903650E+03,      /* J = 21 */
(PID.TID 0000.0001)                 4.113314130015837E+03,      /* J = 22 */
(PID.TID 0000.0001)                 4.112048568245555E+03,      /* J = 23 */
(PID.TID 0000.0001)                 4.110781948379812E+03,      /* J = 24 */
(PID.TID 0000.0001)                 4.109514272204890E+03,      /* J = 25 */
(PID.TID 0000.0001)                 4.108245541506343E+03,      /* J = 26 */
(PID.TID 0000.0001)      . . .
(PID.TID 0000.0001)                 4.086516305844601E+03,      /* J = 43 */
(PID.TID 0000.0001)                 4.085228787830029E+03,      /* J = 44 */
(PID.TID 0000.0001)                 4.083940248837513E+03,      /* J = 45 */
(PID.TID 0000.0001)                 4.082650690638008E+03,      /* J = 46 */
(PID.TID 0000.0001)                 4.081360078528878E+03,      /* J = 47 */
(PID.TID 0000.0001)                 4.080068450672382E+03,      /* J = 48 */
(PID.TID 0000.0001)      . . .
(PID.TID 0000.0001)                 4.057957376278871E+03,      /* J = 65 */
(PID.TID 0000.0001)                 4.056647767010304E+03,      /* J = 66 */
(PID.TID 0000.0001)                 4.055337212739030E+03,      /* J = 67 */
(PID.TID 0000.0001)                 4.054025678029965E+03,      /* J = 68 */
(PID.TID 0000.0001)                 4.052713164636506E+03,      /* J = 69 */
(PID.TID 0000.0001)                 4.051399674311273E+03,      /* J = 70 */
(PID.TID 0000.0001)      . . .
(PID.TID 0000.0001)                 4.027592548301442E+03,      /* J = 88 */
(PID.TID 0000.0001)                 4.026260943407077E+03,      /* J = 89 */
(PID.TID 0000.0001)                 4.024928396702262E+03       /* J = 90 */
(PID.TID 0000.0001)     ;
(PID.TID 0000.0001) dyF =  /* dyF(:,1,:,1) ( units: m ) */
(PID.TID 0000.0001)    90 @  3.805736759660797E+03              /* I =  1: 90 */
(PID.TID 0000.0001)     ;
(PID.TID 0000.0001) dyF =  /* dyF(1,:,1,:) ( units: m ) */
(PID.TID 0000.0001)                 3.805736759660797E+03,      /* J =  1 */
(PID.TID 0000.0001)                 3.804676488651810E+03,      /* J =  2 */
(PID.TID 0000.0001)                 3.803616217642822E+03,      /* J =  3 */
(PID.TID 0000.0001)      . . .
(PID.TID 0000.0001)                 3.783259014270256E+03,      /* J = 21 */
(PID.TID 0000.0001)                 3.781986689059471E+03,      /* J = 22 */
(PID.TID 0000.0001)                 3.780926418050483E+03,      /* J = 23 */
(PID.TID 0000.0001)                 3.779654092839698E+03,      /* J = 24 */
(PID.TID 0000.0001)                 3.778593821830710E+03,      /* J = 25 */
(PID.TID 0000.0001)                 3.777321496619924E+03,      /* J = 26 */
(PID.TID 0000.0001)      . . .
(PID.TID 0000.0001)                 3.757812510054549E+03,      /* J = 43 */
(PID.TID 0000.0001)                 3.756752239045562E+03,      /* J = 44 */
(PID.TID 0000.0001)                 3.755479913834776E+03,      /* J = 45 */
(PID.TID 0000.0001)                 3.754419642825788E+03,      /* J = 46 */
(PID.TID 0000.0001)                 3.753359371816800E+03,      /* J = 47 */
(PID.TID 0000.0001)                 3.752087046606015E+03,      /* J = 48 */
(PID.TID 0000.0001)      . . .
(PID.TID 0000.0001)                 3.732366005838842E+03,      /* J = 65 */
(PID.TID 0000.0001)                 3.731093680628057E+03,      /* J = 66 */
(PID.TID 0000.0001)                 3.729821355417271E+03,      /* J = 67 */
(PID.TID 0000.0001)                 3.728761084408283E+03,      /* J = 68 */
(PID.TID 0000.0001)                 3.727488759197498E+03,      /* J = 69 */
(PID.TID 0000.0001)                 3.726428488188511E+03,      /* J = 70 */
(PID.TID 0000.0001)      . . .
(PID.TID 0000.0001)                 3.705011013806957E+03,      /* J = 88 */
(PID.TID 0000.0001)                 3.703950742797969E+03,      /* J = 89 */
(PID.TID 0000.0001)                 3.702678417587184E+03       /* J = 90 */
(PID.TID 0000.0001)     ;
(PID.TID 0000.0001) dxG =  /* dxG(:,1,:,1) ( units: m ) */
(PID.TID 0000.0001)    90 @  4.140261721044909E+03              /* I =  1: 90 */
(PID.TID 0000.0001)     ;
(PID.TID 0000.0001) dxG =  /* dxG(1,:,1,:) ( units: m ) */
(PID.TID 0000.0001)                 4.140261721044909E+03,      /* J =  1 */
(PID.TID 0000.0001)                 4.139019598272403E+03,      /* J =  2 */
(PID.TID 0000.0001)                 4.137776344777035E+03,      /* J =  3 */
(PID.TID 0000.0001)      . . .
(PID.TID 0000.0001)                 4.115210445004191E+03,      /* J = 21 */
(PID.TID 0000.0001)                 4.113946455960185E+03,      /* J = 22 */
(PID.TID 0000.0001)                 4.112681441584010E+03,      /* J = 23 */
(PID.TID 0000.0001)                 4.111415332734301E+03,      /* J = 24 */
(PID.TID 0000.0001)                 4.110148202207719E+03,      /* J = 25 */
(PID.TID 0000.0001)                 4.108879980698939E+03,      /* J = 26 */
(PID.TID 0000.0001)      . . .
(PID.TID 0000.0001)                 4.087159622456270E+03,      /* J = 43 */
(PID.TID 0000.0001)                 4.085872633696104E+03,      /* J = 44 */
(PID.TID 0000.0001)                 4.084584586739682E+03,      /* J = 45 */
(PID.TID 0000.0001)                 4.083295556063611E+03,      /* J = 46 */
(PID.TID 0000.0001)                 4.082005470653015E+03,      /* J = 47 */
(PID.TID 0000.0001)                 4.080714332157602E+03,      /* J = 48 */
(PID.TID 0000.0001)      . . .
(PID.TID 0000.0001)                 4.058611770197446E+03,      /* J = 65 */
(PID.TID 0000.0001)                 4.057302634073451E+03,      /* J = 66 */
(PID.TID 0000.0001)                 4.055992552010050E+03,      /* J = 67 */
(PID.TID 0000.0001)                 4.054681525880490E+03,      /* J = 68 */
(PID.TID 0000.0001)                 4.053369482901857E+03,      /* J = 69 */
(PID.TID 0000.0001)                 4.052056499442881E+03,      /* J = 70 */
(PID.TID 0000.0001)      . . .
(PID.TID 0000.0001)                 4.028257935157928E+03,      /* J = 88 */
(PID.TID 0000.0001)                 4.026926820812773E+03,      /* J = 89 */
(PID.TID 0000.0001)                 4.025594725676684E+03       /* J = 90 */
(PID.TID 0000.0001)     ;
(PID.TID 0000.0001) dyG =  /* dyG(:,1,:,1) ( units: m ) */
(PID.TID 0000.0001)    90 @  3.805736759660797E+03              /* I =  1: 90 */
(PID.TID 0000.0001)     ;
(PID.TID 0000.0001) dyG =  /* dyG(1,:,1,:) ( units: m ) */
(PID.TID 0000.0001)                 3.805736759660797E+03,      /* J =  1 */
(PID.TID 0000.0001)                 3.804676488651810E+03,      /* J =  2 */
(PID.TID 0000.0001)                 3.803616217642822E+03,      /* J =  3 */
(PID.TID 0000.0001)      . . .
(PID.TID 0000.0001)                 3.783259014270256E+03,      /* J = 21 */
(PID.TID 0000.0001)                 3.781986689059471E+03,      /* J = 22 */
(PID.TID 0000.0001)                 3.780926418050483E+03,      /* J = 23 */
(PID.TID 0000.0001)                 3.779654092839698E+03,      /* J = 24 */
(PID.TID 0000.0001)                 3.778593821830710E+03,      /* J = 25 */
(PID.TID 0000.0001)                 3.777321496619924E+03,      /* J = 26 */
(PID.TID 0000.0001)      . . .
(PID.TID 0000.0001)                 3.757812510054549E+03,      /* J = 43 */
(PID.TID 0000.0001)                 3.756752239045562E+03,      /* J = 44 */
(PID.TID 0000.0001)                 3.755479913834776E+03,      /* J = 45 */
(PID.TID 0000.0001)                 3.754419642825788E+03,      /* J = 46 */
(PID.TID 0000.0001)                 3.753359371816800E+03,      /* J = 47 */
(PID.TID 0000.0001)                 3.752087046606015E+03,      /* J = 48 */
(PID.TID 0000.0001)      . . .
(PID.TID 0000.0001)                 3.732366005838842E+03,      /* J = 65 */
(PID.TID 0000.0001)                 3.731093680628057E+03,      /* J = 66 */
(PID.TID 0000.0001)                 3.729821355417271E+03,      /* J = 67 */
(PID.TID 0000.0001)                 3.728761084408283E+03,      /* J = 68 */
(PID.TID 0000.0001)                 3.727488759197498E+03,      /* J = 69 */
(PID.TID 0000.0001)                 3.726428488188511E+03,      /* J = 70 */
(PID.TID 0000.0001)      . . .
(PID.TID 0000.0001)                 3.705011013806957E+03,      /* J = 88 */
(PID.TID 0000.0001)                 3.703950742797969E+03,      /* J = 89 */
(PID.TID 0000.0001)                 3.702678417587184E+03       /* J = 90 */
(PID.TID 0000.0001)     ;
(PID.TID 0000.0001) dxC =  /* dxC(:,1,:,1) ( units: m ) */
(PID.TID 0000.0001)    90 @  4.139640844360528E+03              /* I =  1: 90 */
(PID.TID 0000.0001)     ;
(PID.TID 0000.0001) dxC =  /* dxC(1,:,1,:) ( units: m ) */
(PID.TID 0000.0001)                 4.139640844360528E+03,      /* J =  1 */
(PID.TID 0000.0001)                 4.138398156068276E+03,      /* J =  2 */
(PID.TID 0000.0001)                 4.137154337892096E+03,      /* J =  3 */
(PID.TID 0000.0001)      . . .
(PID.TID 0000.0001)                 4.114578631903650E+03,      /* J = 21 */
(PID.TID 0000.0001)                 4.113314130015837E+03,      /* J = 22 */
(PID.TID 0000.0001)                 4.112048568245555E+03,      /* J = 23 */
(PID.TID 0000.0001)                 4.110781948379812E+03,      /* J = 24 */
(PID.TID 0000.0001)                 4.109514272204890E+03,      /* J = 25 */
(PID.TID 0000.0001)                 4.108245541506343E+03,      /* J = 26 */
(PID.TID 0000.0001)      . . .
(PID.TID 0000.0001)                 4.086516305844601E+03,      /* J = 43 */
(PID.TID 0000.0001)                 4.085228787830029E+03,      /* J = 44 */
(PID.TID 0000.0001)                 4.083940248837513E+03,      /* J = 45 */
(PID.TID 0000.0001)                 4.082650690638008E+03,      /* J = 46 */
(PID.TID 0000.0001)                 4.081360078528878E+03,      /* J = 47 */
(PID.TID 0000.0001)                 4.080068450672382E+03,      /* J = 48 */
(PID.TID 0000.0001)      . . .
(PID.TID 0000.0001)                 4.057957376278871E+03,      /* J = 65 */
(PID.TID 0000.0001)                 4.056647767010304E+03,      /* J = 66 */
(PID.TID 0000.0001)                 4.055337212739030E+03,      /* J = 67 */
(PID.TID 0000.0001)                 4.054025678029965E+03,      /* J = 68 */
(PID.TID 0000.0001)                 4.052713164636506E+03,      /* J = 69 */
(PID.TID 0000.0001)                 4.051399674311273E+03,      /* J = 70 */
(PID.TID 0000.0001)      . . .
(PID.TID 0000.0001)                 4.027592548301442E+03,      /* J = 88 */
(PID.TID 0000.0001)                 4.026260943407077E+03,      /* J = 89 */
(PID.TID 0000.0001)                 4.024928396702262E+03       /* J = 90 */
(PID.TID 0000.0001)     ;
(PID.TID 0000.0001) dyC =  /* dyC(:,1,:,1) ( units: m ) */
(PID.TID 0000.0001)    90 @  3.465707847078411E+03              /* I =  1: 90 */
(PID.TID 0000.0001)     ;
(PID.TID 0000.0001) dyC =  /* dyC(1,:,1,:) ( units: m ) */
(PID.TID 0000.0001)                 3.465707847078411E+03,      /* J =  1 */
(PID.TID 0000.0001)                 3.805206624156303E+03,      /* J =  2 */
(PID.TID 0000.0001)                 3.804146353147316E+03,      /* J =  3 */
(PID.TID 0000.0001)      . . .
(PID.TID 0000.0001)                 3.783683122673851E+03,      /* J = 21 */
(PID.TID 0000.0001)                 3.782622851664863E+03,      /* J = 22 */
(PID.TID 0000.0001)                 3.781456553554977E+03,      /* J = 23 */
(PID.TID 0000.0001)                 3.780290255445090E+03,      /* J = 24 */
(PID.TID 0000.0001)                 3.779123957335204E+03,      /* J = 25 */
(PID.TID 0000.0001)                 3.777957659225317E+03,      /* J = 26 */
(PID.TID 0000.0001)      . . .
(PID.TID 0000.0001)                 3.758448672659942E+03,      /* J = 43 */
(PID.TID 0000.0001)                 3.757282374550055E+03,      /* J = 44 */
(PID.TID 0000.0001)                 3.756116076440168E+03,      /* J = 45 */
(PID.TID 0000.0001)                 3.754949778330282E+03,      /* J = 46 */
(PID.TID 0000.0001)                 3.753889507321294E+03,      /* J = 47 */
(PID.TID 0000.0001)                 3.752723209211408E+03,      /* J = 48 */
(PID.TID 0000.0001)      . . .
(PID.TID 0000.0001)                 3.732896141343336E+03,      /* J = 65 */
(PID.TID 0000.0001)                 3.731729843233449E+03,      /* J = 66 */
(PID.TID 0000.0001)                 3.730457518022664E+03,      /* J = 67 */
(PID.TID 0000.0001)                 3.729291219912777E+03,      /* J = 68 */
(PID.TID 0000.0001)                 3.728124921802891E+03,      /* J = 69 */
(PID.TID 0000.0001)                 3.726958623693004E+03,      /* J = 70 */
(PID.TID 0000.0001)      . . .
(PID.TID 0000.0001)                 3.705647176412349E+03,      /* J = 88 */
(PID.TID 0000.0001)                 3.704480878302463E+03,      /* J = 89 */
(PID.TID 0000.0001)                 3.703314580192576E+03       /* J = 90 */
(PID.TID 0000.0001)     ;
(PID.TID 0000.0001) dxV =  /* dxV(:,1,:,1) ( units: m ) */
(PID.TID 0000.0001)    90 @  4.140261721044909E+03              /* I =  1: 90 */
(PID.TID 0000.0001)     ;
(PID.TID 0000.0001) dxV =  /* dxV(1,:,1,:) ( units: m ) */
(PID.TID 0000.0001)                 4.140261721044909E+03,      /* J =  1 */
(PID.TID 0000.0001)                 4.139019598272403E+03,      /* J =  2 */
(PID.TID 0000.0001)                 4.137776344777035E+03,      /* J =  3 */
(PID.TID 0000.0001)      . . .
(PID.TID 0000.0001)                 4.115210445004191E+03,      /* J = 21 */
(PID.TID 0000.0001)                 4.113946455960185E+03,      /* J = 22 */
(PID.TID 0000.0001)                 4.112681441584010E+03,      /* J = 23 */
(PID.TID 0000.0001)                 4.111415332734301E+03,      /* J = 24 */
(PID.TID 0000.0001)                 4.110148202207719E+03,      /* J = 25 */
(PID.TID 0000.0001)                 4.108879980698939E+03,      /* J = 26 */
(PID.TID 0000.0001)      . . .
(PID.TID 0000.0001)                 4.087159622456270E+03,      /* J = 43 */
(PID.TID 0000.0001)                 4.085872633696104E+03,      /* J = 44 */
(PID.TID 0000.0001)                 4.084584586739682E+03,      /* J = 45 */
(PID.TID 0000.0001)                 4.083295556063611E+03,      /* J = 46 */
(PID.TID 0000.0001)                 4.082005470653015E+03,      /* J = 47 */
(PID.TID 0000.0001)                 4.080714332157602E+03,      /* J = 48 */
(PID.TID 0000.0001)      . . .
(PID.TID 0000.0001)                 4.058611770197446E+03,      /* J = 65 */
(PID.TID 0000.0001)                 4.057302634073451E+03,      /* J = 66 */
(PID.TID 0000.0001)                 4.055992552010050E+03,      /* J = 67 */
(PID.TID 0000.0001)                 4.054681525880490E+03,      /* J = 68 */
(PID.TID 0000.0001)                 4.053369482901857E+03,      /* J = 69 */
(PID.TID 0000.0001)                 4.052056499442881E+03,      /* J = 70 */
(PID.TID 0000.0001)      . . .
(PID.TID 0000.0001)                 4.028257935157928E+03,      /* J = 88 */
(PID.TID 0000.0001)                 4.026926820812773E+03,      /* J = 89 */
(PID.TID 0000.0001)                 4.025594725676684E+03       /* J = 90 */
(PID.TID 0000.0001)     ;
(PID.TID 0000.0001) dyU =  /* dyU(:,1,:,1) ( units: m ) */
(PID.TID 0000.0001)    90 @  3.465707847078411E+03              /* I =  1: 90 */
(PID.TID 0000.0001)     ;
(PID.TID 0000.0001) dyU =  /* dyU(1,:,1,:) ( units: m ) */
(PID.TID 0000.0001)                 3.465707847078411E+03,      /* J =  1 */
(PID.TID 0000.0001)                 3.805206624156303E+03,      /* J =  2 */
(PID.TID 0000.0001)                 3.804146353147316E+03,      /* J =  3 */
(PID.TID 0000.0001)      . . .
(PID.TID 0000.0001)                 3.783683122673851E+03,      /* J = 21 */
(PID.TID 0000.0001)                 3.782622851664863E+03,      /* J = 22 */
(PID.TID 0000.0001)                 3.781456553554977E+03,      /* J = 23 */
(PID.TID 0000.0001)                 3.780290255445090E+03,      /* J = 24 */
(PID.TID 0000.0001)                 3.779123957335204E+03,      /* J = 25 */
(PID.TID 0000.0001)                 3.777957659225317E+03,      /* J = 26 */
(PID.TID 0000.0001)      . . .
(PID.TID 0000.0001)                 3.758448672659942E+03,      /* J = 43 */
(PID.TID 0000.0001)                 3.757282374550055E+03,      /* J = 44 */
(PID.TID 0000.0001)                 3.756116076440168E+03,      /* J = 45 */
(PID.TID 0000.0001)                 3.754949778330282E+03,      /* J = 46 */
(PID.TID 0000.0001)                 3.753889507321294E+03,      /* J = 47 */
(PID.TID 0000.0001)                 3.752723209211408E+03,      /* J = 48 */
(PID.TID 0000.0001)      . . .
(PID.TID 0000.0001)                 3.732896141343336E+03,      /* J = 65 */
(PID.TID 0000.0001)                 3.731729843233449E+03,      /* J = 66 */
(PID.TID 0000.0001)                 3.730457518022664E+03,      /* J = 67 */
(PID.TID 0000.0001)                 3.729291219912777E+03,      /* J = 68 */
(PID.TID 0000.0001)                 3.728124921802891E+03,      /* J = 69 */
(PID.TID 0000.0001)                 3.726958623693004E+03,      /* J = 70 */
(PID.TID 0000.0001)      . . .
(PID.TID 0000.0001)                 3.705647176412349E+03,      /* J = 88 */
(PID.TID 0000.0001)                 3.704480878302463E+03,      /* J = 89 */
(PID.TID 0000.0001)                 3.703314580192576E+03       /* J = 90 */
(PID.TID 0000.0001)     ;
(PID.TID 0000.0001) rA  =  /* rA (:,1,:,1) ( units: m^2 ) */
(PID.TID 0000.0001)    90 @  1.575438309886870E+07              /* I =  1: 90 */
(PID.TID 0000.0001)     ;
(PID.TID 0000.0001) rA  =  /* rA (1,:,1,:) ( units: m^2 ) */
(PID.TID 0000.0001)                 1.575438309886870E+07,      /* J =  1 */
(PID.TID 0000.0001)                 1.574526593103012E+07,      /* J =  2 */
(PID.TID 0000.0001)                 1.573614710072067E+07,      /* J =  3 */
(PID.TID 0000.0001)      . . .
(PID.TID 0000.0001)                 1.556651647028628E+07,      /* J = 21 */
(PID.TID 0000.0001)                 1.555649905915226E+07,      /* J = 22 */
(PID.TID 0000.0001)                 1.554735283576100E+07,      /* J = 23 */
(PID.TID 0000.0001)                 1.553733358804201E+07,      /* J = 24 */
(PID.TID 0000.0001)                 1.552818501201680E+07,      /* J = 25 */
(PID.TID 0000.0001)                 1.551816396996124E+07,      /* J = 26 */
(PID.TID 0000.0001)      . . .
(PID.TID 0000.0001)                 1.535636187397145E+07,      /* J = 43 */
(PID.TID 0000.0001)                 1.534719217327880E+07,      /* J = 44 */
(PID.TID 0000.0001)                 1.533715535169233E+07,      /* J = 45 */
(PID.TID 0000.0001)                 1.532798372586704E+07,      /* J = 46 */
(PID.TID 0000.0001)                 1.531881087890220E+07,      /* J = 47 */
(PID.TID 0000.0001)                 1.530877176172662E+07,      /* J = 48 */
(PID.TID 0000.0001)      . . .
(PID.TID 0000.0001)                 1.514578194771098E+07,      /* J = 65 */
(PID.TID 0000.0001)                 1.513573263166044E+07,      /* J = 66 */
(PID.TID 0000.0001)                 1.512568312341997E+07,      /* J = 67 */
(PID.TID 0000.0001)                 1.511649296761149E+07,      /* J = 68 */
(PID.TID 0000.0001)                 1.510644254990678E+07,      /* J = 69 */
(PID.TID 0000.0001)                 1.509725094811608E+07,      /* J = 70 */
(PID.TID 0000.0001)      . . .
(PID.TID 0000.0001)                 1.492227454024103E+07,      /* J = 88 */
(PID.TID 0000.0001)                 1.491307200194015E+07,      /* J = 89 */
(PID.TID 0000.0001)                 1.490301529699830E+07       /* J = 90 */
(PID.TID 0000.0001)     ;
(PID.TID 0000.0001) rAw =  /* rAw(:,1,:,1) ( units: m^2 ) */
(PID.TID 0000.0001)    90 @  1.575438309886870E+07              /* I =  1: 90 */
(PID.TID 0000.0001)     ;
(PID.TID 0000.0001) rAw =  /* rAw(1,:,1,:) ( units: m^2 ) */
(PID.TID 0000.0001)                 1.575438309886870E+07,      /* J =  1 */
(PID.TID 0000.0001)                 1.574526593103012E+07,      /* J =  2 */
(PID.TID 0000.0001)                 1.573614710072067E+07,      /* J =  3 */
(PID.TID 0000.0001)      . . .
(PID.TID 0000.0001)                 1.556651647028628E+07,      /* J = 21 */
(PID.TID 0000.0001)                 1.555649905915226E+07,      /* J = 22 */
(PID.TID 0000.0001)                 1.554735283576100E+07,      /* J = 23 */
(PID.TID 0000.0001)                 1.553733358804201E+07,      /* J = 24 */
(PID.TID 0000.0001)                 1.552818501201680E+07,      /* J = 25 */
(PID.TID 0000.0001)                 1.551816396996124E+07,      /* J = 26 */
(PID.TID 0000.0001)      . . .
(PID.TID 0000.0001)                 1.535636187397145E+07,      /* J = 43 */
(PID.TID 0000.0001)                 1.534719217327880E+07,      /* J = 44 */
(PID.TID 0000.0001)                 1.533715535169233E+07,      /* J = 45 */
(PID.TID 0000.0001)                 1.532798372586704E+07,      /* J = 46 */
(PID.TID 0000.0001)                 1.531881087890220E+07,      /* J = 47 */
(PID.TID 0000.0001)                 1.530877176172662E+07,      /* J = 48 */
(PID.TID 0000.0001)      . . .
(PID.TID 0000.0001)                 1.514578194771098E+07,      /* J = 65 */
(PID.TID 0000.0001)                 1.513573263166044E+07,      /* J = 66 */
(PID.TID 0000.0001)                 1.512568312341997E+07,      /* J = 67 */
(PID.TID 0000.0001)                 1.511649296761149E+07,      /* J = 68 */
(PID.TID 0000.0001)                 1.510644254990678E+07,      /* J = 69 */
(PID.TID 0000.0001)                 1.509725094811608E+07,      /* J = 70 */
(PID.TID 0000.0001)      . . .
(PID.TID 0000.0001)                 1.492227454024103E+07,      /* J = 88 */
(PID.TID 0000.0001)                 1.491307200194015E+07,      /* J = 89 */
(PID.TID 0000.0001)                 1.490301529699830E+07       /* J = 90 */
(PID.TID 0000.0001)     ;
(PID.TID 0000.0001) rAs =  /* rAs(:,1,:,1) ( units: m^2 ) */
(PID.TID 0000.0001)    90 @  1.434874515713397E+07              /* I =  1: 90 */
(PID.TID 0000.0001)     ;
(PID.TID 0000.0001) rAs =  /* rAs(1,:,1,:) ( units: m^2 ) */
(PID.TID 0000.0001)                 1.434874515713397E+07,      /* J =  1 */
(PID.TID 0000.0001)                 1.574982488807916E+07,      /* J =  2 */
(PID.TID 0000.0001)                 1.574070688790848E+07,      /* J =  3 */
(PID.TID 0000.0001)      . . .
(PID.TID 0000.0001)                 1.557065234602267E+07,      /* J = 21 */
(PID.TID 0000.0001)                 1.556150804841762E+07,      /* J = 22 */
(PID.TID 0000.0001)                 1.555192629706736E+07,      /* J = 23 */
(PID.TID 0000.0001)                 1.554234349323534E+07,      /* J = 24 */
(PID.TID 0000.0001)                 1.553275964738865E+07,      /* J = 25 */
(PID.TID 0000.0001)                 1.552317476996653E+07,      /* J = 26 */
(PID.TID 0000.0001)      . . .
(PID.TID 0000.0001)                 1.536137984435806E+07,      /* J = 43 */
(PID.TID 0000.0001)                 1.535177734997811E+07,      /* J = 44 */
(PID.TID 0000.0001)                 1.534217401942485E+07,      /* J = 45 */
(PID.TID 0000.0001)                 1.533256986292950E+07,      /* J = 46 */
(PID.TID 0000.0001)                 1.532339762548036E+07,      /* J = 47 */
(PID.TID 0000.0001)                 1.531379157383674E+07,      /* J = 48 */
(PID.TID 0000.0001)      . . .
(PID.TID 0000.0001)                 1.515037634627304E+07,      /* J = 65 */
(PID.TID 0000.0001)                 1.514075752265306E+07,      /* J = 66 */
(PID.TID 0000.0001)                 1.513070810933390E+07,      /* J = 67 */
(PID.TID 0000.0001)                 1.512108834570999E+07,      /* J = 68 */
(PID.TID 0000.0001)                 1.511146798829233E+07,      /* J = 69 */
(PID.TID 0000.0001)                 1.510184704705331E+07,      /* J = 70 */
(PID.TID 0000.0001)      . . .
(PID.TID 0000.0001)                 1.492730285605174E+07,      /* J = 88 */
(PID.TID 0000.0001)                 1.491767354877487E+07,      /* J = 89 */
(PID.TID 0000.0001)                 1.490804385545228E+07       /* J = 90 */
(PID.TID 0000.0001)     ;
(PID.TID 0000.0001) globalArea = /* Integrated horizontal Area (m^2) */
(PID.TID 0000.0001)                 1.130146430983181E+13
(PID.TID 0000.0001)     ;
(PID.TID 0000.0001) // =======================================================
(PID.TID 0000.0001) // End of Model config. summary
(PID.TID 0000.0001) // =======================================================
(PID.TID 0000.0001) 
(PID.TID 0000.0001) == Packages configuration : Check & print summary ==
(PID.TID 0000.0001) 
(PID.TID 0000.0001) OBCS_CHECK: #define ALLOW_OBCS
(PID.TID 0000.0001) OBCS_CHECK: start summary:
(PID.TID 0000.0001) useOBCSprescribe = /* prescribe OB values */
(PID.TID 0000.0001)                   T
(PID.TID 0000.0001)     ;
(PID.TID 0000.0001) useOBCSbalance = /* balance the flow through OB */
(PID.TID 0000.0001)                   T
(PID.TID 0000.0001)     ;
(PID.TID 0000.0001) OBCS_balanceFacN = /* Northern OB Factor for balancing OB flow [-] */
(PID.TID 0000.0001)                -1.000000000000000E+00
(PID.TID 0000.0001)     ;
(PID.TID 0000.0001) OBCS_balanceFacS = /* Southern OB Factor for balancing OB flow [-] */
(PID.TID 0000.0001)                -1.000000000000000E+00
(PID.TID 0000.0001)     ;
(PID.TID 0000.0001) OBCS_balanceFacE = /* Eastern  OB Factor for balancing OB flow [-] */
(PID.TID 0000.0001)                 1.000000000000000E+00
(PID.TID 0000.0001)     ;
(PID.TID 0000.0001) OBCS_balanceFacW = /* Western  OB Factor for balancing OB flow [-] */
(PID.TID 0000.0001)                 1.000000000000000E+00
(PID.TID 0000.0001)     ;
(PID.TID 0000.0001) OBCS_uvApplyFac = /* Factor to apply to U,V 2nd column/row */
(PID.TID 0000.0001)                 1.000000000000000E+00
(PID.TID 0000.0001)     ;
(PID.TID 0000.0001) OBCS_u1_adv_T = /* Temp uses upwind adv-scheme @ OB */
(PID.TID 0000.0001)                       1
(PID.TID 0000.0001)     ;
(PID.TID 0000.0001) OBCS_u1_adv_S = /* Salt uses upwind adv-scheme @ OB */
(PID.TID 0000.0001)                       1
(PID.TID 0000.0001)     ;
(PID.TID 0000.0001) OBCS_monitorFreq = /* monitor output frequency [s] */
(PID.TID 0000.0001)                 2.400000000000000E+02
(PID.TID 0000.0001)     ;
(PID.TID 0000.0001) OBCS_monSelect = /* select group of variables to monitor */
(PID.TID 0000.0001)                       3
(PID.TID 0000.0001)     ;
(PID.TID 0000.0001) useOBCStides = /* apply tidal forcing through OB */
(PID.TID 0000.0001)                   T
(PID.TID 0000.0001)     ;
(PID.TID 0000.0001) tidalPeriod = /* (s) */
(PID.TID 0000.0001)                 4.471416500000000E+04,      /* I =  1 */
(PID.TID 0000.0001)                 4.320000100000000E+04,      /* I =  2 */
(PID.TID 0000.0001)                 4.557005400000000E+04,      /* I =  3 */
(PID.TID 0000.0001)                 4.308205000000000E+04,      /* I =  4 */
(PID.TID 0000.0001)                 8.616407700000000E+04,      /* I =  5 */
(PID.TID 0000.0001)                 9.294963600000000E+04,      /* I =  6 */
(PID.TID 0000.0001)                 8.663720000000000E+04,      /* I =  7 */
(PID.TID 0000.0001)                 9.672608600000000E+04,      /* I =  8 */
(PID.TID 0000.0001)                 1.180295546000000E+06,      /* I =  9 */
(PID.TID 0000.0001)                 2.380715864000000E+06,      /* I = 10 */
(PID.TID 0000.0001)                 2.235709100000000E+04,      /* I = 11 */
(PID.TID 0000.0001)                 2.197202200000000E+04,      /* I = 12 */
(PID.TID 0000.0001)                 2.256904200000000E+04       /* I = 13 */
(PID.TID 0000.0001)     ;
(PID.TID 0000.0001) OB_indexNone = /* null value for OB index (i.e. no OB) */
(PID.TID 0000.0001)                     -99
(PID.TID 0000.0001)     ;
(PID.TID 0000.0001) ======== Tile bi=   1 , bj=   1 ========
(PID.TID 0000.0001)  OB_Jn = /* Northern OB local indices */
(PID.TID 0000.0001)    98 @      -99                            /* I = -3: 94 */
(PID.TID 0000.0001)  OB_Js = /* Southern OB local indices */
(PID.TID 0000.0001)     4 @      -99,                           /* I = -3:  0 */
(PID.TID 0000.0001)    94 @        8                            /* I =  1: 94 */
(PID.TID 0000.0001)  OB_Ie = /* Eastern OB local indices */
(PID.TID 0000.0001)    98 @      -99                            /* J = -3: 94 */
(PID.TID 0000.0001)  OB_Iw = /* Western OB local indices */
(PID.TID 0000.0001)    98 @      -99                            /* J = -3: 94 */
(PID.TID 0000.0001) OBCS_CHECK: end summary.
(PID.TID 0000.0001) OBCS_CHECK: set-up OK
(PID.TID 0000.0001) OBCS_CHECK: check Inside Mask and OB locations: OK
(PID.TID 0000.0001) KPP_CHECK: #define ALLOW_KPP
(PID.TID 0000.0001)  kpp_freq = /* frequency of KPP calculation */
(PID.TID 0000.0001)                 2.400000000000000E+02
(PID.TID 0000.0001)     ;
(PID.TID 0000.0001) KPP_ghatUseTotalDiffus= /* non-local term fct of total diffus */
(PID.TID 0000.0001)                   F
(PID.TID 0000.0001)     ;
(PID.TID 0000.0001) KPPuseDoubleDiff = /* include double diffusive contrib */
(PID.TID 0000.0001)                   F
(PID.TID 0000.0001)     ;
(PID.TID 0000.0001) LimitHblStable = /* limits depth of hbl if stable cond.*/
(PID.TID 0000.0001)                   T
(PID.TID 0000.0001)     ;
(PID.TID 0000.0001)  minKPPhbl = /* minimum KPPhbl value [m] */
(PID.TID 0000.0001)                 2.500000000000000E+00
(PID.TID 0000.0001)     ;
(PID.TID 0000.0001)  epsln     = /* constant [-] */
(PID.TID 0000.0001)                 9.999999999999999E-21
(PID.TID 0000.0001)     ;
(PID.TID 0000.0001)  phepsi    = /* constant [-] */
(PID.TID 0000.0001)                 1.000000000000000E-10
(PID.TID 0000.0001)     ;
(PID.TID 0000.0001)  epsilon   = /* constant [-] */
(PID.TID 0000.0001)                 1.000000000000000E-01
(PID.TID 0000.0001)     ;
(PID.TID 0000.0001)  vonk      = /* Von Karmans constant [-] */
(PID.TID 0000.0001)                 4.000000000000000E-01
(PID.TID 0000.0001)     ;
(PID.TID 0000.0001)  dB_dz     = /* maximum N^2 in mixed layer [s^-2] */
(PID.TID 0000.0001)                 5.200000000000000E-05
(PID.TID 0000.0001)     ;
(PID.TID 0000.0001)  conc1     = /* scalar constant [-] */
(PID.TID 0000.0001)                 5.000000000000000E+00
(PID.TID 0000.0001)     ;
(PID.TID 0000.0001)  conam     = /* scalar constant [-] */
(PID.TID 0000.0001)                 1.257000000000000E+00
(PID.TID 0000.0001)     ;
(PID.TID 0000.0001)  concm     = /* scalar constant [-] */
(PID.TID 0000.0001)                 8.380000000000001E+00
(PID.TID 0000.0001)     ;
(PID.TID 0000.0001)  conc2     = /* scalar constant [-] */
(PID.TID 0000.0001)                 1.600000000000000E+01
(PID.TID 0000.0001)     ;
(PID.TID 0000.0001)  conas     = /* scalar constant [-] */
(PID.TID 0000.0001)                -2.886000000000000E+01
(PID.TID 0000.0001)     ;
(PID.TID 0000.0001)  concs     = /* scalar constant [-] */
(PID.TID 0000.0001)                 9.895999999999999E+01
(PID.TID 0000.0001)     ;
(PID.TID 0000.0001)  conc3     = /* scalar constant [-] */
(PID.TID 0000.0001)                 1.600000000000000E+01
(PID.TID 0000.0001)     ;
(PID.TID 0000.0001)  zetam     = /* scalar constant [-] */
(PID.TID 0000.0001)                -2.000000000000000E-01
(PID.TID 0000.0001)     ;
(PID.TID 0000.0001)  zetas     = /* scalar constant [-] */
(PID.TID 0000.0001)                -1.000000000000000E+00
(PID.TID 0000.0001)     ;
(PID.TID 0000.0001)  Ricr      = /* critical bulk Richardson Number [-] */
(PID.TID 0000.0001)                 3.000000000000000E-01
(PID.TID 0000.0001)     ;
(PID.TID 0000.0001)  cekman    = /* coeff for Ekman depth [-] */
(PID.TID 0000.0001)                 7.000000000000000E-01
(PID.TID 0000.0001)     ;
(PID.TID 0000.0001)  cmonob    = /* coeff for Monin-Obukhov depth [-] */
(PID.TID 0000.0001)                 1.000000000000000E+00
(PID.TID 0000.0001)     ;
(PID.TID 0000.0001)  concv     = /* buoyancy freq ratio [-] */
(PID.TID 0000.0001)                 1.800000000000000E+00
(PID.TID 0000.0001)     ;
(PID.TID 0000.0001)  hbf       = /* solar radiation depth ratio [-] */
(PID.TID 0000.0001)                 1.000000000000000E+00
(PID.TID 0000.0001)     ;
(PID.TID 0000.0001)  zmin      = /* minimum for zehat in table [m3/s3] */
(PID.TID 0000.0001)                -4.000000000000000E-07
(PID.TID 0000.0001)     ;
(PID.TID 0000.0001)  zmax      = /* maximum for zehat in table [m3/s3] */
(PID.TID 0000.0001)                 0.000000000000000E+00
(PID.TID 0000.0001)     ;
(PID.TID 0000.0001)  umin      = /* minimum for ustar in table [m/s] */
(PID.TID 0000.0001)                 0.000000000000000E+00
(PID.TID 0000.0001)     ;
(PID.TID 0000.0001)  umax      = /* maximum for ustar in table [m/s] */
(PID.TID 0000.0001)                 4.000000000000000E-02
(PID.TID 0000.0001)     ;
(PID.TID 0000.0001) num_v_smooth_Ri = /* number of vertical smoothing */
(PID.TID 0000.0001)                       0
(PID.TID 0000.0001)     ;
(PID.TID 0000.0001)  Riinfty   = /* shear instability Ri number limit [-] */
(PID.TID 0000.0001)                 7.000000000000000E-01
(PID.TID 0000.0001)     ;
(PID.TID 0000.0001)  BVSQcon   = /* Brunt-Vaisala squared (=N^2) [s^-2] */
(PID.TID 0000.0001)                -2.000000000000000E-05
(PID.TID 0000.0001)     ;
(PID.TID 0000.0001)  difm0     = /* max viscosity from shear instab. [m2/s] */
(PID.TID 0000.0001)                 5.000000000000000E-03
(PID.TID 0000.0001)     ;
(PID.TID 0000.0001)  difs0     = /* max diffusiv. from shear instab. [m2/s] */
(PID.TID 0000.0001)                 5.000000000000000E-03
(PID.TID 0000.0001)     ;
(PID.TID 0000.0001)  dift0     = /* max diffusiv. from shear instab. [m2/s] */
(PID.TID 0000.0001)                 5.000000000000000E-03
(PID.TID 0000.0001)     ;
(PID.TID 0000.0001)  difmcon   = /* convective viscosity [m2/s] */
(PID.TID 0000.0001)                 1.000000000000000E-01
(PID.TID 0000.0001)     ;
(PID.TID 0000.0001)  difscon   = /* convective diffusiv. [m2/s] */
(PID.TID 0000.0001)                 1.000000000000000E-01
(PID.TID 0000.0001)     ;
(PID.TID 0000.0001)  diftcon   = /* convective diffusiv. [m2/s] */
(PID.TID 0000.0001)                 1.000000000000000E-01
(PID.TID 0000.0001)     ;
(PID.TID 0000.0001)  Rrho0     = /* double diffusion density ratio [-] */
(PID.TID 0000.0001)                 1.900000000000000E+00
(PID.TID 0000.0001)     ;
(PID.TID 0000.0001)  dsfmax    = /* max diffusiv. for salt fingering [m2/s] */
(PID.TID 0000.0001)                 1.000000000000000E-02
(PID.TID 0000.0001)     ;
(PID.TID 0000.0001)  cstar     = /* coeff for non-locak transport [-] */
(PID.TID 0000.0001)                 1.000000000000000E+01
(PID.TID 0000.0001)     ;
(PID.TID 0000.0001) KPPwriteState = /* write KPP fields to file */
(PID.TID 0000.0001)                   F
(PID.TID 0000.0001)     ;
(PID.TID 0000.0001)  kpp_dumpFreq = /* dump freq of KPP output */
(PID.TID 0000.0001)                 0.000000000000000E+00
(PID.TID 0000.0001)     ;
(PID.TID 0000.0001)  kpp_taveFreq = /* time-averaging freq of KPP output */
(PID.TID 0000.0001)                 0.000000000000000E+00
(PID.TID 0000.0001)     ;
(PID.TID 0000.0001) 
(PID.TID 0000.0001) EXF_CHECK: #define ALLOW_EXF
(PID.TID 0000.0001) GAD_CHECK: #define ALLOW_GENERIC_ADVDIFF
(PID.TID 0000.0001) // =======================================================
(PID.TID 0000.0001) // Check Model config. (CONFIG_CHECK):
(PID.TID 0000.0001) // CONFIG_CHECK : Normal End
(PID.TID 0000.0001) // =======================================================
(PID.TID 0000.0001) 
(PID.TID 0000.0001)  MDS_READ_FIELD: opening global file: U0_2160x540x100.bin
(PID.TID 0000.0001)  MDS_READ_FIELD: opening global file: V0_2160x540x100.bin
(PID.TID 0000.0001)  MDS_READ_FIELD: opening global file: T0_2160x540x100.bin
(PID.TID 0000.0001)  MDS_READ_FIELD: opening global file: S0_2160x540x100.bin
(PID.TID 0000.0001) Start initial hydrostatic pressure computation
(PID.TID 0000.0001) Pressure is predetermined for buoyancyRelation OCEANIC
(PID.TID 0000.0001) 
(PID.TID 0000.0001)  write diagnostics summary to file ioUnit:      6
Iter.Nb:         0 ; Time(s):  0.0000000000000E+00
------------------------------------------------------------------------
2D/3D diagnostics: Number of lists:     2
------------------------------------------------------------------------
listId=    1 ; file name: diags/surface
 nFlds, nActive,       freq     &     phase        , nLev               
    5  |    5  |      3600.000000         0.000000 |   1
 levels:   1
 diag# | name   |   ipt  |  iMate | kLev|   count |   mate.C|           
    23 |ETAN    |      1 |      0 |   1 |       0 |
    80 |oceTAUX |      2 |      3 |   1 |       0 |       0 |
    81 |oceTAUY |      3 |      2 |   1 |       0 |       0 |
   185 |EXFuwind|      4 |      0 |   1 |       0 |
   186 |EXFvwind|      5 |      0 |   1 |       0 |
------------------------------------------------------------------------
listId=    2 ; file name: diags/interior
 nFlds, nActive,       freq     &     phase        , nLev               
    9  |    9  |   2592000.000000         0.000000 | 100
 levels:   1   2   3   4   5   6   7   8   9  10  11  12  13  14  15  16  17  18  19  20  21  22  23  24  25
 levels:  26  27  28  29  30  31  32  33  34  35  36  37  38  39  40  41  42  43  44  45  46  47  48  49  50
 levels:  51  52  53  54  55  56  57  58  59  60  61  62  63  64  65  66  67  68  69  70  71  72  73  74  75
 levels:  76  77  78  79  80  81  82  83  84  85  86  87  88  89  90  91  92  93  94  95  96  97  98  99 100
 diag# | name   |   ipt  |  iMate | kLev|   count |   mate.C|           
    26 |THETA   |      6 |      0 | 100 |       0 |
    27 |SALT    |    106 |      0 | 100 |       0 |
    30 |UVEL    |    206 |    306 | 100 |       0 |       0 |
    31 |VVEL    |    306 |    206 | 100 |       0 |       0 |
    32 |WVEL    |    406 |      0 | 100 |       0 |
    36 |UVELSQ  |    506 |    606 | 100 |       0 |       0 |
    37 |VVELSQ  |    606 |    506 | 100 |       0 |       0 |
    52 |WTHMASS |    706 |      0 | 100 |       0 |
    55 |WSLTMASS|    806 |      0 | 100 |       0 |
------------------------------------------------------------------------
Global & Regional Statistics diagnostics: Number of lists:     0
------------------------------------------------------------------------
(PID.TID 0000.0001)  MDS_READ_SEC_XZ: opening global file: OBNam_2160x13.bin
(PID.TID 0000.0001)  MDS_READ_SEC_XZ: opening global file: OBNph_2160x13.bin
(PID.TID 0000.0001)  MDS_READ_SEC_XZ: opening global file: OBSam_2160x13.bin
(PID.TID 0000.0001)  MDS_READ_SEC_XZ: opening global file: OBSph_2160x13.bin
(PID.TID 0000.0001)  MDS_READ_SEC_XZ: opening global file: OBNu_2160x100x26.bin
(PID.TID 0000.0001)  MDS_READ_SEC_XZ: opening global file: OBNu_2160x100x26.bin
(PID.TID 0000.0001)  MDS_READ_SEC_XZ: opening global file: OBNv_2160x100x26.bin
(PID.TID 0000.0001)  MDS_READ_SEC_XZ: opening global file: OBNv_2160x100x26.bin
(PID.TID 0000.0001)  MDS_READ_SEC_XZ: opening global file: OBNt_2160x100x26.bin
(PID.TID 0000.0001)  MDS_READ_SEC_XZ: opening global file: OBNt_2160x100x26.bin
(PID.TID 0000.0001)  MDS_READ_SEC_XZ: opening global file: OBNs_2160x100x26.bin
(PID.TID 0000.0001)  MDS_READ_SEC_XZ: opening global file: OBNs_2160x100x26.bin
(PID.TID 0000.0001)  MDS_READ_SEC_XZ: opening global file: OBSu_2160x100x26.bin
(PID.TID 0000.0001)  MDS_READ_SEC_XZ: opening global file: OBSu_2160x100x26.bin
(PID.TID 0000.0001)  MDS_READ_SEC_XZ: opening global file: OBSv_2160x100x26.bin
(PID.TID 0000.0001)  MDS_READ_SEC_XZ: opening global file: OBSv_2160x100x26.bin
(PID.TID 0000.0001)  MDS_READ_SEC_XZ: opening global file: OBSt_2160x100x26.bin
(PID.TID 0000.0001)  MDS_READ_SEC_XZ: opening global file: OBSt_2160x100x26.bin
(PID.TID 0000.0001)  MDS_READ_SEC_XZ: opening global file: OBSs_2160x100x26.bin
(PID.TID 0000.0001)  MDS_READ_SEC_XZ: opening global file: OBSs_2160x100x26.bin
(PID.TID 0000.0001) // =======================================================
(PID.TID 0000.0001) // Model current state
(PID.TID 0000.0001) // =======================================================
(PID.TID 0000.0001) 
(PID.TID 0000.0001) // =======================================================
(PID.TID 0000.0001) // Begin MONITOR dynamic field statistics
(PID.TID 0000.0001) // =======================================================
(PID.TID 0000.0001) %MON time_tsnumber                =                     0
(PID.TID 0000.0001) %MON time_secondsf                =   0.0000000000000E+00
(PID.TID 0000.0001) %MON dynstat_eta_max              =   0.0000000000000E+00
(PID.TID 0000.0001) %MON dynstat_eta_min              =   0.0000000000000E+00
(PID.TID 0000.0001) %MON dynstat_eta_mean             =   0.0000000000000E+00
(PID.TID 0000.0001) %MON dynstat_eta_sd               =   0.0000000000000E+00
(PID.TID 0000.0001) %MON dynstat_eta_del2             =   0.0000000000000E+00
(PID.TID 0000.0001) %MON dynstat_uvel_max             =   1.2655940055847E+00
(PID.TID 0000.0001) %MON dynstat_uvel_min             =  -6.7179697751999E-01
(PID.TID 0000.0001) %MON dynstat_uvel_mean            =   3.8933782453988E-03
(PID.TID 0000.0001) %MON dynstat_uvel_sd              =   5.2086469330268E-02
(PID.TID 0000.0001) %MON dynstat_uvel_del2            =   3.0019794494422E-07
(PID.TID 0000.0001) %MON dynstat_vvel_max             =   1.8766679377822E+00
(PID.TID 0000.0001) %MON dynstat_vvel_min             =  -8.8630950450897E-01
(PID.TID 0000.0001) %MON dynstat_vvel_mean            =  -1.8315008085781E-04
(PID.TID 0000.0001) %MON dynstat_vvel_sd              =   4.8401112616991E-02
(PID.TID 0000.0001) %MON dynstat_vvel_del2            =   3.9531900049683E-07
(PID.TID 0000.0001) %MON dynstat_wvel_max             =   8.0878572016153E-02
(PID.TID 0000.0001) %MON dynstat_wvel_min             =  -1.0644865410817E-01
(PID.TID 0000.0001) %MON dynstat_wvel_mean            =  -1.8564800099859E-06
(PID.TID 0000.0001) %MON dynstat_wvel_sd              =   1.3360682389456E-03
(PID.TID 0000.0001) %MON dynstat_wvel_del2            =   3.7531921664199E-07
(PID.TID 0000.0001) %MON dynstat_theta_max            =   2.6144617080688E+01
(PID.TID 0000.0001) %MON dynstat_theta_min            =   1.4688636064529E+00
(PID.TID 0000.0001) %MON dynstat_theta_mean           =   5.5098811020494E+00
(PID.TID 0000.0001) %MON dynstat_theta_sd             =   4.7735348546542E+00
(PID.TID 0000.0001) %MON dynstat_theta_del2           =   4.0189244228695E-06
(PID.TID 0000.0001) %MON dynstat_salt_max             =   3.9185241699219E+01
(PID.TID 0000.0001) %MON dynstat_salt_min             =   3.3089591979980E+01
(PID.TID 0000.0001) %MON dynstat_salt_mean            =   3.5173374558496E+01
(PID.TID 0000.0001) %MON dynstat_salt_sd              =   3.7891790794924E-01
(PID.TID 0000.0001) %MON dynstat_salt_del2            =   4.9655867703385E-07
(PID.TID 0000.0001) %MON dynstat_sst_max              =   2.6144517898560E+01
(PID.TID 0000.0001) %MON dynstat_sst_min              =   4.0907053947449E+00
(PID.TID 0000.0001) %MON dynstat_sst_mean             =   1.9650344179206E+01
(PID.TID 0000.0001) %MON dynstat_sst_sd               =   3.6388127143234E+00
(PID.TID 0000.0001) %MON dynstat_sst_del2             =   1.9236263370514E-05
(PID.TID 0000.0001) %MON dynstat_sss_max              =   3.7335128784180E+01
(PID.TID 0000.0001) %MON dynstat_sss_min              =   3.3089591979980E+01
(PID.TID 0000.0001) %MON dynstat_sss_mean             =   3.5867950426451E+01
(PID.TID 0000.0001) %MON dynstat_sss_sd               =   4.8717343265566E-01
(PID.TID 0000.0001) %MON dynstat_sss_del2             =   5.0430181870384E-06
(PID.TID 0000.0001) %MON forcing_qnet_max             =   0.0000000000000E+00
(PID.TID 0000.0001) %MON forcing_qnet_min             =   0.0000000000000E+00
(PID.TID 0000.0001) %MON forcing_qnet_mean            =   0.0000000000000E+00
(PID.TID 0000.0001) %MON forcing_qnet_sd              =   0.0000000000000E+00
(PID.TID 0000.0001) %MON forcing_qnet_del2            =   0.0000000000000E+00
(PID.TID 0000.0001) %MON forcing_qsw_max              =   0.0000000000000E+00
(PID.TID 0000.0001) %MON forcing_qsw_min              =   0.0000000000000E+00
(PID.TID 0000.0001) %MON forcing_qsw_mean             =   0.0000000000000E+00
(PID.TID 0000.0001) %MON forcing_qsw_sd               =   0.0000000000000E+00
(PID.TID 0000.0001) %MON forcing_qsw_del2             =   0.0000000000000E+00
(PID.TID 0000.0001) %MON forcing_empmr_max            =   0.0000000000000E+00
(PID.TID 0000.0001) %MON forcing_empmr_min            =   0.0000000000000E+00
(PID.TID 0000.0001) %MON forcing_empmr_mean           =   0.0000000000000E+00
(PID.TID 0000.0001) %MON forcing_empmr_sd             =   0.0000000000000E+00
(PID.TID 0000.0001) %MON forcing_empmr_del2           =   0.0000000000000E+00
(PID.TID 0000.0001) %MON forcing_fu_max               =   0.0000000000000E+00
(PID.TID 0000.0001) %MON forcing_fu_min               =   0.0000000000000E+00
(PID.TID 0000.0001) %MON forcing_fu_mean              =   0.0000000000000E+00
(PID.TID 0000.0001) %MON forcing_fu_sd                =   0.0000000000000E+00
(PID.TID 0000.0001) %MON forcing_fu_del2              =   0.0000000000000E+00
(PID.TID 0000.0001) %MON forcing_fv_max               =   0.0000000000000E+00
(PID.TID 0000.0001) %MON forcing_fv_min               =   0.0000000000000E+00
(PID.TID 0000.0001) %MON forcing_fv_mean              =   0.0000000000000E+00
(PID.TID 0000.0001) %MON forcing_fv_sd                =   0.0000000000000E+00
(PID.TID 0000.0001) %MON forcing_fv_del2              =   0.0000000000000E+00
(PID.TID 0000.0001) %MON trAdv_CFL_u_max              =   0.0000000000000E+00
(PID.TID 0000.0001) %MON trAdv_CFL_v_max              =   0.0000000000000E+00
(PID.TID 0000.0001) %MON trAdv_CFL_w_max              =   0.0000000000000E+00
(PID.TID 0000.0001) %MON advcfl_uvel_max              =   7.6757822680034E-02
(PID.TID 0000.0001) %MON advcfl_vvel_max              =   1.1860877864772E-01
(PID.TID 0000.0001) %MON advcfl_wvel_max              =   1.0219070794384E+01
(PID.TID 0000.0001) %MON advcfl_W_hf_max              =   5.0990576573765E+00
(PID.TID 0000.0001) %MON pe_b_mean                    =   0.0000000000000E+00
(PID.TID 0000.0001) %MON ke_max                       =   1.6014653258787E+00
(PID.TID 0000.0001) %MON ke_mean                      =   2.5166672230983E-03
(PID.TID 0000.0001) %MON ke_vol                       =   4.5818637279720E+16
(PID.TID 0000.0001) %MON vort_r_min                   =  -2.7112786765354E-04
(PID.TID 0000.0001) %MON vort_r_max                   =   4.5284213837033E-04
(PID.TID 0000.0001) %MON vort_a_mean                  =   8.2147631506710E-05
(PID.TID 0000.0001) %MON vort_a_sd                    =   1.0110316133288E-05
(PID.TID 0000.0001) %MON vort_p_mean                  =   8.4848853092653E-05
(PID.TID 0000.0001) %MON vort_p_sd                    =   3.4983760879124E-05
(PID.TID 0000.0001) %MON surfExpan_theta_mean         =   2.0592395504451E-05
(PID.TID 0000.0001) %MON surfExpan_salt_mean          =  -1.7210634086920E-04
(PID.TID 0000.0001) // =======================================================
(PID.TID 0000.0001) // End MONITOR dynamic field statistics
(PID.TID 0000.0001) // =======================================================
(PID.TID 0000.0001) // =======================================================
(PID.TID 0000.0001) // Begin OBCS MONITOR field statistics
(PID.TID 0000.0001) // =======================================================
(PID.TID 0000.0001) %MON obc_N_vVel_max               =   6.9579085314553E-01
(PID.TID 0000.0001) %MON obc_N_vVel_min               =  -3.2183263391360E-01
(PID.TID 0000.0001) %MON obc_N_vVel_mean              =   1.3107185862961E-02
(PID.TID 0000.0001) %MON obc_N_vVel_sd                =   6.4693829583860E-02
(PID.TID 0000.0001) %MON obc_N_vVel_Int               =   1.8763047269621E+08
(PID.TID 0000.0001) %MON obc_S_vVel_max               =   1.8766679377822E+00
(PID.TID 0000.0001) %MON obc_S_vVel_min               =  -2.6178254188100E-01
(PID.TID 0000.0001) %MON obc_S_vVel_mean              =   4.1390867252904E-03
(PID.TID 0000.0001) %MON obc_S_vVel_sd                =   3.5756336765240E-02
(PID.TID 0000.0001) %MON obc_S_vVel_Int               =   1.2600580191554E+08
(PID.TID 0000.0001) %MON obc_N_theta_max              =   1.6390861045164E+01
(PID.TID 0000.0001) %MON obc_N_theta_min              =   1.8895907269856E+00
(PID.TID 0000.0001) %MON obc_N_theta_mean             =   5.1589805018888E+00
(PID.TID 0000.0001) %MON obc_N_theta_sd               =   3.4827339404776E+00
(PID.TID 0000.0001) %MON obc_S_theta_max              =   2.5544941308807E+01
(PID.TID 0000.0001) %MON obc_S_theta_min              =   1.4632956408867E+00
(PID.TID 0000.0001) %MON obc_S_theta_mean             =   5.4595577802114E+00
(PID.TID 0000.0001) %MON obc_S_theta_sd               =   5.3559370357223E+00
(PID.TID 0000.0001) %MON obc_N_salt_max               =   3.5910867647958E+01
(PID.TID 0000.0001) %MON obc_N_salt_min               =   3.3295014070045E+01
(PID.TID 0000.0001) %MON obc_N_salt_mean              =   3.5114564316350E+01
(PID.TID 0000.0001) %MON obc_N_salt_sd                =   3.0984932953669E-01
(PID.TID 0000.0001) %MON obc_S_salt_max               =   3.7318346630621E+01
(PID.TID 0000.0001) %MON obc_S_salt_min               =   3.4844694313817E+01
(PID.TID 0000.0001) %MON obc_S_salt_mean              =   3.5168372938834E+01
(PID.TID 0000.0001) %MON obc_S_salt_sd                =   4.5717110794259E-01
(PID.TID 0000.0001) // =======================================================
(PID.TID 0000.0001) // End OBCS MONITOR field statistics
(PID.TID 0000.0001) // =======================================================
(PID.TID 0000.0001)  EXF_INTERP_READ: opening file: jra55/jra55_u10m_2003
(PID.TID 0000.0001)  EXF_INTERP_READ: opening file: jra55/jra55_v10m_2003
(PID.TID 0000.0001)  EXF_INTERP_UV: fileU="jra55/jra55_u10m_2003", rec=     1 , x-Per,P.Sym=    T    T
(PID.TID 0000.0001)  S.edge (j=-1,0,1) : proc= 2.2 1.1 0.0, yIn=  -90.429910  -90.000000  -89.570090
(PID.TID 0000.0001)  N.edge (j=+0,+1,+2) proc= 0.0 1.1 2.2, yIn=   89.570063   90.000000   90.429937
(PID.TID 0000.0001)  EXF_INTERP_READ: opening file: jra55/jra55_u10m_2003
(PID.TID 0000.0001)  EXF_INTERP_READ: opening file: jra55/jra55_v10m_2003
(PID.TID 0000.0001)  EXF_INTERP_UV: fileU="jra55/jra55_u10m_2003", rec=     2 , x-Per,P.Sym=    T    T
(PID.TID 0000.0001)  S.edge (j=-1,0,1) : proc= 2.2 1.1 0.0, yIn=  -90.429910  -90.000000  -89.570090
(PID.TID 0000.0001)  N.edge (j=+0,+1,+2) proc= 0.0 1.1 2.2, yIn=   89.570063   90.000000   90.429937
(PID.TID 0000.0001)  EXF_INTERP_READ: opening file: jra55/jra55_tmp2m_degC_2003
(PID.TID 0000.0001)  EXF_INTERP: file="jra55/jra55_tmp2m_degC_2003", rec=     1 , x-Per,P.Sym=    T    T
(PID.TID 0000.0001)  S.edge (j=-1,0,1) : proc= 2.2 1.1 0.0, yIn=  -90.429910  -90.000000  -89.570090
(PID.TID 0000.0001)  N.edge (j=+0,+1,+2) proc= 0.0 1.1 2.2, yIn=   89.570063   90.000000   90.429937
(PID.TID 0000.0001)  EXF_INTERP_READ: opening file: jra55/jra55_tmp2m_degC_2003
(PID.TID 0000.0001)  EXF_INTERP: file="jra55/jra55_tmp2m_degC_2003", rec=     2 , x-Per,P.Sym=    T    T
(PID.TID 0000.0001)  S.edge (j=-1,0,1) : proc= 2.2 1.1 0.0, yIn=  -90.429910  -90.000000  -89.570090
(PID.TID 0000.0001)  N.edge (j=+0,+1,+2) proc= 0.0 1.1 2.2, yIn=   89.570063   90.000000   90.429937
(PID.TID 0000.0001)  EXF_INTERP_READ: opening file: jra55/jra55_spfh2m_2003
(PID.TID 0000.0001)  EXF_INTERP: file="jra55/jra55_spfh2m_2003", rec=     1 , x-Per,P.Sym=    T    T
(PID.TID 0000.0001)  S.edge (j=-1,0,1) : proc= 2.2 1.1 0.0, yIn=  -90.429910  -90.000000  -89.570090
(PID.TID 0000.0001)  N.edge (j=+0,+1,+2) proc= 0.0 1.1 2.2, yIn=   89.570063   90.000000   90.429937
(PID.TID 0000.0001)  EXF_INTERP_READ: opening file: jra55/jra55_spfh2m_2003
(PID.TID 0000.0001)  EXF_INTERP: file="jra55/jra55_spfh2m_2003", rec=     2 , x-Per,P.Sym=    T    T
(PID.TID 0000.0001)  S.edge (j=-1,0,1) : proc= 2.2 1.1 0.0, yIn=  -90.429910  -90.000000  -89.570090
(PID.TID 0000.0001)  N.edge (j=+0,+1,+2) proc= 0.0 1.1 2.2, yIn=   89.570063   90.000000   90.429937
(PID.TID 0000.0001)  EXF_INTERP_READ: opening file: jra55/jra55_rain_2002
(PID.TID 0000.0001)  EXF_INTERP: file="jra55/jra55_rain_2002", rec=  2920 , x-Per,P.Sym=    T    T
(PID.TID 0000.0001)  S.edge (j=-1,0,1) : proc= 2.2 1.1 0.0, yIn=  -90.429910  -90.000000  -89.570090
(PID.TID 0000.0001)  N.edge (j=+0,+1,+2) proc= 0.0 1.1 2.2, yIn=   89.570063   90.000000   90.429937
(PID.TID 0000.0001)  EXF_INTERP_READ: opening file: jra55/jra55_rain_2003
(PID.TID 0000.0001)  EXF_INTERP: file="jra55/jra55_rain_2003", rec=     1 , x-Per,P.Sym=    T    T
(PID.TID 0000.0001)  S.edge (j=-1,0,1) : proc= 2.2 1.1 0.0, yIn=  -90.429910  -90.000000  -89.570090
(PID.TID 0000.0001)  N.edge (j=+0,+1,+2) proc= 0.0 1.1 2.2, yIn=   89.570063   90.000000   90.429937
(PID.TID 0000.0001)  EXF_INTERP_READ: opening file: jra55/jra55_dsw_2002
(PID.TID 0000.0001)  EXF_INTERP: file="jra55/jra55_dsw_2002", rec=  2920 , x-Per,P.Sym=    T    T
(PID.TID 0000.0001)  S.edge (j=-1,0,1) : proc= 2.2 1.1 0.0, yIn=  -90.429910  -90.000000  -89.570090
(PID.TID 0000.0001)  N.edge (j=+0,+1,+2) proc= 0.0 1.1 2.2, yIn=   89.570063   90.000000   90.429937
(PID.TID 0000.0001)  EXF_INTERP_READ: opening file: jra55/jra55_dsw_2003
(PID.TID 0000.0001)  EXF_INTERP: file="jra55/jra55_dsw_2003", rec=     1 , x-Per,P.Sym=    T    T
(PID.TID 0000.0001)  S.edge (j=-1,0,1) : proc= 2.2 1.1 0.0, yIn=  -90.429910  -90.000000  -89.570090
(PID.TID 0000.0001)  N.edge (j=+0,+1,+2) proc= 0.0 1.1 2.2, yIn=   89.570063   90.000000   90.429937
(PID.TID 0000.0001)  EXF_INTERP_READ: opening file: jra55/jra55_dlw_2002
(PID.TID 0000.0001)  EXF_INTERP: file="jra55/jra55_dlw_2002", rec=  2920 , x-Per,P.Sym=    T    T
(PID.TID 0000.0001)  S.edge (j=-1,0,1) : proc= 2.2 1.1 0.0, yIn=  -90.429910  -90.000000  -89.570090
(PID.TID 0000.0001)  N.edge (j=+0,+1,+2) proc= 0.0 1.1 2.2, yIn=   89.570063   90.000000   90.429937
(PID.TID 0000.0001)  EXF_INTERP_READ: opening file: jra55/jra55_dlw_2003
(PID.TID 0000.0001)  EXF_INTERP: file="jra55/jra55_dlw_2003", rec=     1 , x-Per,P.Sym=    T    T
(PID.TID 0000.0001)  S.edge (j=-1,0,1) : proc= 2.2 1.1 0.0, yIn=  -90.429910  -90.000000  -89.570090
(PID.TID 0000.0001)  N.edge (j=+0,+1,+2) proc= 0.0 1.1 2.2, yIn=   89.570063   90.000000   90.429937
(PID.TID 0000.0001)  EXF_INTERP_READ: opening file: jra55/jra55_pres_2003
(PID.TID 0000.0001)  EXF_INTERP: file="jra55/jra55_pres_2003", rec=     1 , x-Per,P.Sym=    T    T
(PID.TID 0000.0001)  S.edge (j=-1,0,1) : proc= 2.2 1.1 0.0, yIn=  -90.429910  -90.000000  -89.570090
(PID.TID 0000.0001)  N.edge (j=+0,+1,+2) proc= 0.0 1.1 2.2, yIn=   89.570063   90.000000   90.429937
(PID.TID 0000.0001)  EXF_INTERP_READ: opening file: jra55/jra55_pres_2003
(PID.TID 0000.0001)  EXF_INTERP: file="jra55/jra55_pres_2003", rec=     2 , x-Per,P.Sym=    T    T
(PID.TID 0000.0001)  S.edge (j=-1,0,1) : proc= 2.2 1.1 0.0, yIn=  -90.429910  -90.000000  -89.570090
(PID.TID 0000.0001)  N.edge (j=+0,+1,+2) proc= 0.0 1.1 2.2, yIn=   89.570063   90.000000   90.429937
(PID.TID 0000.0001)  EXF_INTERP_READ: opening file: tide_2003
(PID.TID 0000.0001)  EXF_INTERP: file="tide_2003", rec=     1 , x-Per,P.Sym=    T    T
(PID.TID 0000.0001)  S.edge (j=-1,0,1) : proc= 0.2 0.2 0.1, yIn=  -92.000000  -91.000000  -90.000000
(PID.TID 0000.0001)  N.edge (j=+0,+1,+2) proc= 0.1 0.2 0.2, yIn=   90.000000   91.000000   92.000000
(PID.TID 0000.0001)  EXF_INTERP_READ: opening file: tide_2003
(PID.TID 0000.0001)  EXF_INTERP: file="tide_2003", rec=     2 , x-Per,P.Sym=    T    T
(PID.TID 0000.0001)  S.edge (j=-1,0,1) : proc= 0.2 0.2 0.1, yIn=  -92.000000  -91.000000  -90.000000
(PID.TID 0000.0001)  N.edge (j=+0,+1,+2) proc= 0.1 0.2 0.2, yIn=   90.000000   91.000000   92.000000
(PID.TID 0000.0001)  EXF_INTERP_READ: opening file: runoff1p2472-360x180x12.bin
(PID.TID 0000.0001)  EXF_INTERP: file="runoff1p2472-360x180x12.bin", rec=    12 , x-Per,P.Sym=    T    T
(PID.TID 0000.0001)  S.edge (j=-1,0,1) : proc= 2.2 1.1 0.0, yIn=  -90.500000  -90.000000  -89.500000
(PID.TID 0000.0001)  N.edge (j=+0,+1,+2) proc= 0.0 1.1 2.2, yIn=   89.500000   90.000000   90.500000
(PID.TID 0000.0001)  EXF_INTERP_READ: opening file: runoff1p2472-360x180x12.bin
(PID.TID 0000.0001)  EXF_INTERP: file="runoff1p2472-360x180x12.bin", rec=     1 , x-Per,P.Sym=    T    T
(PID.TID 0000.0001)  S.edge (j=-1,0,1) : proc= 2.2 1.1 0.0, yIn=  -90.500000  -90.000000  -89.500000
(PID.TID 0000.0001)  N.edge (j=+0,+1,+2) proc= 0.0 1.1 2.2, yIn=   89.500000   90.000000   90.500000
(PID.TID 0000.0001) // =======================================================
(PID.TID 0000.0001) // Begin MONITOR EXF statistics
(PID.TID 0000.0001) // =======================================================
(PID.TID 0000.0001) %MON exf_tsnumber                 =                     0
(PID.TID 0000.0001) %MON exf_time_sec                 =   0.0000000000000E+00
(PID.TID 0000.0001) %MON exf_ustress_max              =   5.9828291677676E-01
(PID.TID 0000.0001) %MON exf_ustress_min              =  -1.8433291893505E-01
(PID.TID 0000.0001) %MON exf_ustress_mean             =   9.9906877250448E-02
(PID.TID 0000.0001) %MON exf_ustress_sd               =   1.3888319317712E-01
(PID.TID 0000.0001) %MON exf_ustress_del2             =   1.8085119516651E-07
(PID.TID 0000.0001) %MON exf_vstress_max              =   4.1798761582242E-01
(PID.TID 0000.0001) %MON exf_vstress_min              =  -4.7987588799952E-01
(PID.TID 0000.0001) %MON exf_vstress_mean             =   2.7201310025817E-02
(PID.TID 0000.0001) %MON exf_vstress_sd               =   1.5638433904604E-01
(PID.TID 0000.0001) %MON exf_vstress_del2             =   3.2163901710978E-07
(PID.TID 0000.0001) %MON exf_hflux_max                =   1.0771745331196E+03
(PID.TID 0000.0001) %MON exf_hflux_min                =  -1.3859551153078E+02
(PID.TID 0000.0001) %MON exf_hflux_mean               =   3.2588614775414E+02
(PID.TID 0000.0001) %MON exf_hflux_sd                 =   2.1434634687775E+02
(PID.TID 0000.0001) %MON exf_hflux_del2               =   8.7389841728847E-02
(PID.TID 0000.0001) %MON exf_sflux_max                =   2.3097424340112E-07
(PID.TID 0000.0001) %MON exf_sflux_min                =  -9.5795578973554E-07
(PID.TID 0000.0001) %MON exf_sflux_mean               =   4.3559453571910E-08
(PID.TID 0000.0001) %MON exf_sflux_sd                 =   1.0501221981429E-07
(PID.TID 0000.0001) %MON exf_sflux_del2               =   2.3666915803943E-11
(PID.TID 0000.0001) %MON exf_uwind_max                =   1.6141123164518E+01
(PID.TID 0000.0001) %MON exf_uwind_min                =  -1.0679580698115E+01
(PID.TID 0000.0001) %MON exf_uwind_mean               =   4.3821942843440E+00
(PID.TID 0000.0001) %MON exf_uwind_sd                 =   5.9486086822155E+00
(PID.TID 0000.0001) %MON exf_uwind_del2               =   1.6448658175507E-03
(PID.TID 0000.0001) %MON exf_vwind_max                =   1.5090364000730E+01
(PID.TID 0000.0001) %MON exf_vwind_min                =  -1.3251599583846E+01
(PID.TID 0000.0001) %MON exf_vwind_mean               =   1.6972387870683E+00
(PID.TID 0000.0001) %MON exf_vwind_sd                 =   7.4352263176458E+00
(PID.TID 0000.0001) %MON exf_vwind_del2               =   1.6982711207806E-03
(PID.TID 0000.0001) %MON exf_wspeed_max               =   1.8530427213460E+01
(PID.TID 0000.0001) %MON exf_wspeed_min               =   1.0106641037926E-02
(PID.TID 0000.0001) %MON exf_wspeed_mean              =   9.9876551678292E+00
(PID.TID 0000.0001) %MON exf_wspeed_sd                =   3.6054855627700E+00
(PID.TID 0000.0001) %MON exf_wspeed_del2              =   2.3641902431200E-03
(PID.TID 0000.0001) %MON exf_atemp_max                =   2.9779365601525E+02
(PID.TID 0000.0001) %MON exf_atemp_min                =   2.7422282548718E+02
(PID.TID 0000.0001) %MON exf_atemp_mean               =   2.8987749353801E+02
(PID.TID 0000.0001) %MON exf_atemp_sd                 =   4.3354310499167E+00
(PID.TID 0000.0001) %MON exf_atemp_del2               =   3.7040828102967E-03
(PID.TID 0000.0001) %MON exf_aqh_max                  =   1.4680264583793E-02
(PID.TID 0000.0001) %MON exf_aqh_min                  =   3.0385509503180E-03
(PID.TID 0000.0001) %MON exf_aqh_mean                 =   9.5885286666975E-03
(PID.TID 0000.0001) %MON exf_aqh_sd                   =   2.2791479271258E-03
(PID.TID 0000.0001) %MON exf_aqh_del2                 =   2.1314671736198E-06
(PID.TID 0000.0001) %MON exf_lwflux_max               =   1.5865744684041E+02
(PID.TID 0000.0001) %MON exf_lwflux_min               =   1.8159899444148E+00
(PID.TID 0000.0001) %MON exf_lwflux_mean              =   7.2824506135939E+01
(PID.TID 0000.0001) %MON exf_lwflux_sd                =   2.7811147438135E+01
(PID.TID 0000.0001) %MON exf_lwflux_del2              =   1.7303388339492E-02
(PID.TID 0000.0001) %MON exf_evap_max                 =   2.5264450323165E-07
(PID.TID 0000.0001) %MON exf_evap_min                 =  -4.3150900377304E-08
(PID.TID 0000.0001) %MON exf_evap_mean                =   8.0306712012427E-08
(PID.TID 0000.0001) %MON exf_evap_sd                  =   5.6712124974999E-08
(PID.TID 0000.0001) %MON exf_evap_del2                =   2.1779542594896E-11
(PID.TID 0000.0001) %MON exf_precip_max               =   9.5810364743679E-07
(PID.TID 0000.0001) %MON exf_precip_min               =   0.0000000000000E+00
(PID.TID 0000.0001) %MON exf_precip_mean              =   3.5158778868526E-08
(PID.TID 0000.0001) %MON exf_precip_sd                =   7.8175827170829E-08
(PID.TID 0000.0001) %MON exf_precip_del2              =   1.7295962776673E-11
(PID.TID 0000.0001) %MON exf_swflux_max               =   0.0000000000000E+00
(PID.TID 0000.0001) %MON exf_swflux_min               =  -2.3728315594647E+01
(PID.TID 0000.0001) %MON exf_swflux_mean              =  -7.9028957973714E-01
(PID.TID 0000.0001) %MON exf_swflux_sd                =   2.5059807263017E+00
(PID.TID 0000.0001) %MON exf_swflux_del2              =   5.4207406517501E-04
(PID.TID 0000.0001) %MON exf_swdown_max               =   2.6364795105163E+01
(PID.TID 0000.0001) %MON exf_swdown_min               =   0.0000000000000E+00
(PID.TID 0000.0001) %MON exf_swdown_mean              =   8.7809953304126E-01
(PID.TID 0000.0001) %MON exf_swdown_sd                =   2.7844230292241E+00
(PID.TID 0000.0001) %MON exf_swdown_del2              =   6.0230451686112E-04
(PID.TID 0000.0001) %MON exf_lwdown_max               =   4.0176146581389E+02
(PID.TID 0000.0001) %MON exf_lwdown_min               =   2.4830109152218E+02
(PID.TID 0000.0001) %MON exf_lwdown_mean              =   3.4205174193616E+02
(PID.TID 0000.0001) %MON exf_lwdown_sd                =   2.7548444956077E+01
(PID.TID 0000.0001) %MON exf_lwdown_del2              =   7.4678186276892E-02
(PID.TID 0000.0001) %MON exf_apressure_max            =   1.0299751478971E+05
(PID.TID 0000.0001) %MON exf_apressure_min            =   9.9661165507357E+04
(PID.TID 0000.0001) %MON exf_apressure_mean           =   1.0185750621569E+05
(PID.TID 0000.0001) %MON exf_apressure_sd             =   8.4139526050191E+02
(PID.TID 0000.0001) %MON exf_apressure_del2           =   2.2283178733130E+01
(PID.TID 0000.0001) %MON exf_runoff_max               =   4.4374798712073E-08
(PID.TID 0000.0001) %MON exf_runoff_min               =   0.0000000000000E+00
(PID.TID 0000.0001) %MON exf_runoff_mean              =   1.5884795719908E-09
(PID.TID 0000.0001) %MON exf_runoff_sd                =   5.3901959599983E-09
(PID.TID 0000.0001) %MON exf_runoff_del2              =   1.2741189756369E-12
(PID.TID 0000.0001) // =======================================================
(PID.TID 0000.0001) // End MONITOR EXF statistics
(PID.TID 0000.0001) // =======================================================
(PID.TID 0000.0001) SOLVE_FOR_PRESSURE: putPmEinXvector =    F
 cg2d: Sum(rhs),rhsMax =   5.26806012293014E+01  2.94751023675603E-01
(PID.TID 0000.0001)      cg2d_init_res =   1.55092015670519E+01
(PID.TID 0000.0001)      cg2d_iters(min,last) =      -1     326
(PID.TID 0000.0001)      cg2d_last_res =   6.93567369809185E-12
(PID.TID 0000.0001) // =======================================================
(PID.TID 0000.0001) // Begin MONITOR dynamic field statistics
(PID.TID 0000.0001) // =======================================================
(PID.TID 0000.0001) %MON time_tsnumber                =                     1
(PID.TID 0000.0001) %MON time_secondsf                =   2.4000000000000E+02
(PID.TID 0000.0001) %MON dynstat_eta_max              =   9.9413643388199E-01
(PID.TID 0000.0001) %MON dynstat_eta_min              =  -1.3588381501117E+00
(PID.TID 0000.0001) %MON dynstat_eta_mean             =  -1.7915145317381E-03
(PID.TID 0000.0001) %MON dynstat_eta_sd               =   6.5769706443877E-02
(PID.TID 0000.0001) %MON dynstat_eta_del2             =   7.8016632160428E-06
(PID.TID 0000.0001) %MON dynstat_uvel_max             =   1.2707786086821E+00
(PID.TID 0000.0001) %MON dynstat_uvel_min             =  -6.9994226235186E-01
(PID.TID 0000.0001) %MON dynstat_uvel_mean            =   4.0339254294128E-03
(PID.TID 0000.0001) %MON dynstat_uvel_sd              =   5.2161504557795E-02
(PID.TID 0000.0001) %MON dynstat_uvel_del2            =   4.4002444159346E-07
(PID.TID 0000.0001) %MON dynstat_vvel_max             =   1.8944082266793E+00
(PID.TID 0000.0001) %MON dynstat_vvel_min             =  -8.8170675162513E-01
(PID.TID 0000.0001) %MON dynstat_vvel_mean            =  -6.3240290043963E-04
(PID.TID 0000.0001) %MON dynstat_vvel_sd              =   4.8192545226801E-02
(PID.TID 0000.0001) %MON dynstat_vvel_del2            =   4.1703623998853E-07
(PID.TID 0000.0001) %MON dynstat_wvel_max             =   3.6311996352038E-02
(PID.TID 0000.0001) %MON dynstat_wvel_min             =  -3.3422309000907E-02
(PID.TID 0000.0001) %MON dynstat_wvel_mean            =  -3.0884693882597E-06
(PID.TID 0000.0001) %MON dynstat_wvel_sd              =   5.9795037296901E-04
(PID.TID 0000.0001) %MON dynstat_wvel_del2            =   9.0655875238970E-08
(PID.TID 0000.0001) %MON dynstat_theta_max            =   2.6141461660746E+01
(PID.TID 0000.0001) %MON dynstat_theta_min            =   1.4688636746317E+00
(PID.TID 0000.0001) %MON dynstat_theta_mean           =   5.5098707293804E+00
(PID.TID 0000.0001) %MON dynstat_theta_sd             =   4.7735025577203E+00
(PID.TID 0000.0001) %MON dynstat_theta_del2           =   4.0094512947602E-06
(PID.TID 0000.0001) %MON dynstat_salt_max             =   3.9184248896962E+01
(PID.TID 0000.0001) %MON dynstat_salt_min             =   3.3089717890069E+01
(PID.TID 0000.0001) %MON dynstat_salt_mean            =   3.5173373023927E+01
(PID.TID 0000.0001) %MON dynstat_salt_sd              =   3.7891621363828E-01
(PID.TID 0000.0001) %MON dynstat_salt_del2            =   4.9539214075167E-07
(PID.TID 0000.0001) %MON dynstat_sst_max              =   2.6138440552714E+01
(PID.TID 0000.0001) %MON dynstat_sst_min              =   4.0763622432206E+00
(PID.TID 0000.0001) %MON dynstat_sst_mean             =   1.9647520674340E+01
(PID.TID 0000.0001) %MON dynstat_sst_sd               =   3.6381507141100E+00
(PID.TID 0000.0001) %MON dynstat_sst_del2             =   1.9150675711566E-05
(PID.TID 0000.0001) %MON dynstat_sss_max              =   3.7335144464680E+01
(PID.TID 0000.0001) %MON dynstat_sss_min              =   3.3089717890069E+01
(PID.TID 0000.0001) %MON dynstat_sss_mean             =   3.5868036087475E+01
(PID.TID 0000.0001) %MON dynstat_sss_sd               =   4.8721788554920E-01
(PID.TID 0000.0001) %MON dynstat_sss_del2             =   5.0258520282533E-06
(PID.TID 0000.0001) %MON forcing_qnet_max             =   1.0936094740935E+03
(PID.TID 0000.0001) %MON forcing_qnet_min             =  -1.6395575320352E+02
(PID.TID 0000.0001) %MON forcing_qnet_mean            =   3.3037701043126E+02
(PID.TID 0000.0001) %MON forcing_qnet_sd              =   2.2009895100884E+02
(PID.TID 0000.0001) %MON forcing_qnet_del2            =   1.2044715078787E-03
(PID.TID 0000.0001) %MON forcing_qsw_max              =   0.0000000000000E+00
(PID.TID 0000.0001) %MON forcing_qsw_min              =  -2.3728315594647E+01
(PID.TID 0000.0001) %MON forcing_qsw_mean             =  -7.9028957973714E-01
(PID.TID 0000.0001) %MON forcing_qsw_sd               =   2.5059807263017E+00
(PID.TID 0000.0001) %MON forcing_qsw_del2             =   8.0702644278991E-06
(PID.TID 0000.0001) %MON forcing_empmr_max            =   2.3097424340112E-04
(PID.TID 0000.0001) %MON forcing_empmr_min            =  -9.5795578973554E-04
(PID.TID 0000.0001) %MON forcing_empmr_mean           =   4.3559453571910E-05
(PID.TID 0000.0001) %MON forcing_empmr_sd             =   1.0501221981429E-04
(PID.TID 0000.0001) %MON forcing_empmr_del2           =   8.3077372202561E-10
(PID.TID 0000.0001) %MON forcing_fu_max               =   5.9826021696462E-01
(PID.TID 0000.0001) %MON forcing_fu_min               =  -1.8433236576096E-01
(PID.TID 0000.0001) %MON forcing_fu_mean              =   1.0001601103669E-01
(PID.TID 0000.0001) %MON forcing_fu_sd                =   1.3891332034836E-01
(PID.TID 0000.0001) %MON forcing_fu_del2              =   1.6404057389575E-07
(PID.TID 0000.0001) %MON forcing_fv_max               =   4.1791626663461E-01
(PID.TID 0000.0001) %MON forcing_fv_min               =  -4.7987415619332E-01
(PID.TID 0000.0001) %MON forcing_fv_mean              =   2.7135661200322E-02
(PID.TID 0000.0001) %MON forcing_fv_sd                =   1.5639709878754E-01
(PID.TID 0000.0001) %MON forcing_fv_del2              =   3.0625126566278E-07
(PID.TID 0000.0001) %MON trAdv_CFL_u_max              =   7.7086434105980E-02
(PID.TID 0000.0001) %MON trAdv_CFL_v_max              =   1.1969517004292E-01
(PID.TID 0000.0001) %MON trAdv_CFL_w_max              =   6.5359035666570E-01
(PID.TID 0000.0001) %MON advcfl_uvel_max              =   7.7086433056379E-02
(PID.TID 0000.0001) %MON advcfl_vvel_max              =   1.1972999671543E-01
(PID.TID 0000.0001) %MON advcfl_wvel_max              =   6.5359035666570E-01
(PID.TID 0000.0001) %MON advcfl_W_hf_max              =   6.5359035666570E-01
(PID.TID 0000.0001) %MON pe_b_mean                    =  -3.6814050982940E-05
(PID.TID 0000.0001) %MON ke_max                       =   1.6131914460530E+00
(PID.TID 0000.0001) %MON ke_mean                      =   2.5112671849485E-03
(PID.TID 0000.0001) %MON ke_vol                       =   4.5818637279720E+16
(PID.TID 0000.0001) %MON vort_r_min                   =  -3.7588336750309E-04
(PID.TID 0000.0001) %MON vort_r_max                   =   5.4398529628451E-04
(PID.TID 0000.0001) %MON vort_a_mean                  =   8.2147630795905E-05
(PID.TID 0000.0001) %MON vort_a_sd                    =   1.0119183571945E-05
(PID.TID 0000.0001) %MON vort_p_mean                  =   8.4848852358474E-05
(PID.TID 0000.0001) %MON vort_p_sd                    =   3.4986101440530E-05
(PID.TID 0000.0001) %MON surfExpan_theta_mean         =   4.0398629938857E-05
(PID.TID 0000.0001) %MON surfExpan_salt_mean          =  -2.3862692496690E-04
(PID.TID 0000.0001) // =======================================================
(PID.TID 0000.0001) // End MONITOR dynamic field statistics
(PID.TID 0000.0001) // =======================================================
(PID.TID 0000.0001) // =======================================================
(PID.TID 0000.0001) // Begin OBCS MONITOR field statistics
(PID.TID 0000.0001) // =======================================================
(PID.TID 0000.0001) %MON obc_N_vVel_max               =   6.9574427194414E-01
(PID.TID 0000.0001) %MON obc_N_vVel_min               =  -3.2190138536929E-01
(PID.TID 0000.0001) %MON obc_N_vVel_mean              =   1.3214372707035E-02
(PID.TID 0000.0001) %MON obc_N_vVel_sd                =   6.4696568943744E-02
(PID.TID 0000.0001) %MON obc_N_vVel_Int               =   1.8916486142242E+08
(PID.TID 0000.0001) %MON obc_S_vVel_max               =   1.8944082266793E+00
(PID.TID 0000.0001) %MON obc_S_vVel_min               =  -2.6193006856167E-01
(PID.TID 0000.0001) %MON obc_S_vVel_mean              =   3.4426239329257E-03
(PID.TID 0000.0001) %MON obc_S_vVel_sd                =   3.5781323435683E-02
(PID.TID 0000.0001) %MON obc_S_vVel_Int               =   1.0480345500166E+08
(PID.TID 0000.0001) %MON obc_N_theta_max              =   1.6390772942977E+01
(PID.TID 0000.0001) %MON obc_N_theta_min              =   1.8895907760510E+00
(PID.TID 0000.0001) %MON obc_N_theta_mean             =   5.1589731177388E+00
(PID.TID 0000.0001) %MON obc_N_theta_sd               =   3.4827246474693E+00
(PID.TID 0000.0001) %MON obc_S_theta_max              =   2.5544838560027E+01
(PID.TID 0000.0001) %MON obc_S_theta_min              =   1.4632960371739E+00
(PID.TID 0000.0001) %MON obc_S_theta_mean             =   5.4595569751868E+00
(PID.TID 0000.0001) %MON obc_S_theta_sd               =   5.3559331643598E+00
(PID.TID 0000.0001) %MON obc_N_salt_max               =   3.5910867239595E+01
(PID.TID 0000.0001) %MON obc_N_salt_min               =   3.3295019572678E+01
(PID.TID 0000.0001) %MON obc_N_salt_mean              =   3.5114564020364E+01
(PID.TID 0000.0001) %MON obc_N_salt_sd                =   3.0984921004960E-01
(PID.TID 0000.0001) %MON obc_S_salt_max               =   3.7318339746237E+01
(PID.TID 0000.0001) %MON obc_S_salt_min               =   3.4844694366037E+01
(PID.TID 0000.0001) %MON obc_S_salt_mean              =   3.5168372866917E+01
(PID.TID 0000.0001) %MON obc_S_salt_sd                =   4.5717075682044E-01
(PID.TID 0000.0001) // =======================================================
(PID.TID 0000.0001) // End OBCS MONITOR field statistics
(PID.TID 0000.0001) // =======================================================
(PID.TID 0000.0001) // =======================================================
(PID.TID 0000.0001) // Begin MONITOR EXF statistics
(PID.TID 0000.0001) // =======================================================
(PID.TID 0000.0001) %MON exf_tsnumber                 =                     1
(PID.TID 0000.0001) %MON exf_time_sec                 =   2.4000000000000E+02
(PID.TID 0000.0001) %MON exf_ustress_max              =   5.9444045275300E-01
(PID.TID 0000.0001) %MON exf_ustress_min              =  -1.8297222474528E-01
(PID.TID 0000.0001) %MON exf_ustress_mean             =   9.9574814238059E-02
(PID.TID 0000.0001) %MON exf_ustress_sd               =   1.3827268188301E-01
(PID.TID 0000.0001) %MON exf_ustress_del2             =   1.9116559088128E-07
(PID.TID 0000.0001) %MON exf_vstress_max              =   4.1588034008409E-01
(PID.TID 0000.0001) %MON exf_vstress_min              =  -4.7835980890746E-01
(PID.TID 0000.0001) %MON exf_vstress_mean             =   2.7279931518262E-02
(PID.TID 0000.0001) %MON exf_vstress_sd               =   1.5577775245969E-01
(PID.TID 0000.0001) %MON exf_vstress_del2             =   3.2599453118878E-07
(PID.TID 0000.0001) %MON exf_hflux_max                =   1.0735923927768E+03
(PID.TID 0000.0001) %MON exf_hflux_min                =  -1.3746931347190E+02
(PID.TID 0000.0001) %MON exf_hflux_mean               =   3.2532641150365E+02
(PID.TID 0000.0001) %MON exf_hflux_sd                 =   2.1374528376871E+02
(PID.TID 0000.0001) %MON exf_hflux_del2               =   8.7193104343788E-02
(PID.TID 0000.0001) %MON exf_sflux_max                =   2.3008057638118E-07
(PID.TID 0000.0001) %MON exf_sflux_min                =  -9.7120990166947E-07
(PID.TID 0000.0001) %MON exf_sflux_mean               =   4.3294507421976E-08
(PID.TID 0000.0001) %MON exf_sflux_sd                 =   1.0531421966650E-07
(PID.TID 0000.0001) %MON exf_sflux_del2               =   2.3686202167193E-11
(PID.TID 0000.0001) %MON exf_uwind_max                =   1.6069074092958E+01
(PID.TID 0000.0001) %MON exf_uwind_min                =  -1.0645363097690E+01
(PID.TID 0000.0001) %MON exf_uwind_mean               =   4.3789399861738E+00
(PID.TID 0000.0001) %MON exf_uwind_sd                 =   5.9407643783641E+00
(PID.TID 0000.0001) %MON exf_uwind_del2               =   1.6432375754479E-03
(PID.TID 0000.0001) %MON exf_vwind_max                =   1.5060777351389E+01
(PID.TID 0000.0001) %MON exf_vwind_min                =  -1.3224433288376E+01
(PID.TID 0000.0001) %MON exf_vwind_mean               =   1.7026954143981E+00
(PID.TID 0000.0001) %MON exf_vwind_sd                 =   7.4233923075647E+00
(PID.TID 0000.0001) %MON exf_vwind_del2               =   1.6958738302430E-03
(PID.TID 0000.0001) %MON exf_wspeed_max               =   1.8497010533898E+01
(PID.TID 0000.0001) %MON exf_wspeed_min               =   6.0181098968089E-02
(PID.TID 0000.0001) %MON exf_wspeed_mean              =   9.9763685135560E+00
(PID.TID 0000.0001) %MON exf_wspeed_sd                =   3.5980262797403E+00
(PID.TID 0000.0001) %MON exf_wspeed_del2              =   2.3613345140770E-03
(PID.TID 0000.0001) %MON exf_atemp_max                =   2.9779320198741E+02
(PID.TID 0000.0001) %MON exf_atemp_min                =   2.7424283192223E+02
(PID.TID 0000.0001) %MON exf_atemp_mean               =   2.8987756705114E+02
(PID.TID 0000.0001) %MON exf_atemp_sd                 =   4.3318673256009E+00
(PID.TID 0000.0001) %MON exf_atemp_del2               =   3.7040486836662E-03
(PID.TID 0000.0001) %MON exf_aqh_max                  =   1.4674778444218E-02
(PID.TID 0000.0001) %MON exf_aqh_min                  =   3.0467762325991E-03
(PID.TID 0000.0001) %MON exf_aqh_mean                 =   9.5881454841722E-03
(PID.TID 0000.0001) %MON exf_aqh_sd                   =   2.2765791315054E-03
(PID.TID 0000.0001) %MON exf_aqh_del2                 =   2.1313191920950E-06
(PID.TID 0000.0001) %MON exf_lwflux_max               =   1.5843780377821E+02
(PID.TID 0000.0001) %MON exf_lwflux_min               =   1.6090628577557E+00
(PID.TID 0000.0001) %MON exf_lwflux_mean              =   7.2807821938424E+01
(PID.TID 0000.0001) %MON exf_lwflux_sd                =   2.7811853388436E+01
(PID.TID 0000.0001) %MON exf_lwflux_del2              =   1.7298573764083E-02
(PID.TID 0000.0001) %MON exf_evap_max                 =   2.5177253974295E-07
(PID.TID 0000.0001) %MON exf_evap_min                 =  -4.2936079262574E-08
(PID.TID 0000.0001) %MON exf_evap_mean                =   8.0136624042707E-08
(PID.TID 0000.0001) %MON exf_evap_sd                  =   5.6539680131805E-08
(PID.TID 0000.0001) %MON exf_evap_del2                =   2.1723444589717E-11
(PID.TID 0000.0001) %MON exf_precip_max               =   9.7121393552868E-07
(PID.TID 0000.0001) %MON exf_precip_min               =   0.0000000000000E+00
(PID.TID 0000.0001) %MON exf_precip_mean              =   3.5253637048740E-08
(PID.TID 0000.0001) %MON exf_precip_sd                =   7.8573980115841E-08
(PID.TID 0000.0001) %MON exf_precip_del2              =   1.7370041428679E-11
(PID.TID 0000.0001) %MON exf_swflux_max               =   0.0000000000000E+00
(PID.TID 0000.0001) %MON exf_swflux_min               =  -2.2673723790440E+01
(PID.TID 0000.0001) %MON exf_swflux_mean              =  -7.5516559841549E-01
(PID.TID 0000.0001) %MON exf_swflux_sd                =   2.3946038051327E+00
(PID.TID 0000.0001) %MON exf_swflux_del2              =   5.1798188450057E-04
(PID.TID 0000.0001) %MON exf_swdown_max               =   2.5193026433823E+01
(PID.TID 0000.0001) %MON exf_swdown_min               =   0.0000000000000E+00
(PID.TID 0000.0001) %MON exf_swdown_mean              =   8.3907288712832E-01
(PID.TID 0000.0001) %MON exf_swdown_sd                =   2.6606708945919E+00
(PID.TID 0000.0001) %MON exf_swdown_del2              =   5.7553542722285E-04
(PID.TID 0000.0001) %MON exf_lwdown_max               =   4.0186345913350E+02
(PID.TID 0000.0001) %MON exf_lwdown_min               =   2.4851490532549E+02
(PID.TID 0000.0001) %MON exf_lwdown_mean              =   3.4205272002334E+02
(PID.TID 0000.0001) %MON exf_lwdown_sd                =   2.7535958185204E+01
(PID.TID 0000.0001) %MON exf_lwdown_del2              =   7.4678535000548E-02
(PID.TID 0000.0001) %MON exf_apressure_max            =   1.0299488031807E+05
(PID.TID 0000.0001) %MON exf_apressure_min            =   9.9660044923776E+04
(PID.TID 0000.0001) %MON exf_apressure_mean           =   1.0185587250794E+05
(PID.TID 0000.0001) %MON exf_apressure_sd             =   8.4080035076119E+02
(PID.TID 0000.0001) %MON exf_apressure_del2           =   2.2282830653047E+01
(PID.TID 0000.0001) %MON exf_runoff_max               =   4.4374798712073E-08
(PID.TID 0000.0001) %MON exf_runoff_min               =   0.0000000000000E+00
(PID.TID 0000.0001) %MON exf_runoff_mean              =   1.5884795719908E-09
(PID.TID 0000.0001) %MON exf_runoff_sd                =   5.3901959599983E-09
(PID.TID 0000.0001) %MON exf_runoff_del2              =   1.2741189756369E-12
(PID.TID 0000.0001) // =======================================================
(PID.TID 0000.0001) // End MONITOR EXF statistics
(PID.TID 0000.0001) // =======================================================
 cg2d: Sum(rhs),rhsMax =   1.19494929877160E+02  4.70638551974375E-02
(PID.TID 0000.0001)      cg2d_init_res =   1.39140281864653E+01
(PID.TID 0000.0001)      cg2d_iters(min,last) =      -1     323
(PID.TID 0000.0001)      cg2d_last_res =   6.85978892491691E-12
(PID.TID 0000.0001) // =======================================================
(PID.TID 0000.0001) // Begin MONITOR dynamic field statistics
(PID.TID 0000.0001) // =======================================================
(PID.TID 0000.0001) %MON time_tsnumber                =                     2
(PID.TID 0000.0001) %MON time_secondsf                =   4.8000000000000E+02
(PID.TID 0000.0001) %MON dynstat_eta_max              =   8.7214853400299E-01
(PID.TID 0000.0001) %MON dynstat_eta_min              =  -1.5271799119063E+00
(PID.TID 0000.0001) %MON dynstat_eta_mean             =  -4.0636761606450E-03
(PID.TID 0000.0001) %MON dynstat_eta_sd               =   9.7374988908287E-02
(PID.TID 0000.0001) %MON dynstat_eta_del2             =   3.4512335637468E-06
(PID.TID 0000.0001) %MON dynstat_uvel_max             =   1.2807725633447E+00
(PID.TID 0000.0001) %MON dynstat_uvel_min             =  -7.0567692476675E-01
(PID.TID 0000.0001) %MON dynstat_uvel_mean            =   4.1368867440655E-03
(PID.TID 0000.0001) %MON dynstat_uvel_sd              =   5.2275029671786E-02
(PID.TID 0000.0001) %MON dynstat_uvel_del2            =   4.6177284770719E-07
(PID.TID 0000.0001) %MON dynstat_vvel_max             =   1.9227748132589E+00
(PID.TID 0000.0001) %MON dynstat_vvel_min             =  -8.8192214798750E-01
(PID.TID 0000.0001) %MON dynstat_vvel_mean            =  -1.0670828557173E-03
(PID.TID 0000.0001) %MON dynstat_vvel_sd              =   4.8169970832006E-02
(PID.TID 0000.0001) %MON dynstat_vvel_del2            =   4.2794898328229E-07
(PID.TID 0000.0001) %MON dynstat_wvel_max             =   3.7117684918405E-02
(PID.TID 0000.0001) %MON dynstat_wvel_min             =  -3.2772526744390E-02
(PID.TID 0000.0001) %MON dynstat_wvel_mean            =  -4.3165097998949E-06
(PID.TID 0000.0001) %MON dynstat_wvel_sd              =   5.8525508572087E-04
(PID.TID 0000.0001) %MON dynstat_wvel_del2            =   9.0304751522359E-08
(PID.TID 0000.0001) %MON dynstat_theta_max            =   2.6140838887552E+01
(PID.TID 0000.0001) %MON dynstat_theta_min            =   1.4688637566637E+00
(PID.TID 0000.0001) %MON dynstat_theta_mean           =   5.5098607165236E+00
(PID.TID 0000.0001) %MON dynstat_theta_sd             =   4.7734686883190E+00
(PID.TID 0000.0001) %MON dynstat_theta_del2           =   4.0037378162020E-06
(PID.TID 0000.0001) %MON dynstat_salt_max             =   3.9182775242705E+01
(PID.TID 0000.0001) %MON dynstat_salt_min             =   3.3089852626216E+01
(PID.TID 0000.0001) %MON dynstat_salt_mean            =   3.5173371538813E+01
(PID.TID 0000.0001) %MON dynstat_salt_sd              =   3.7891461071487E-01
(PID.TID 0000.0001) %MON dynstat_salt_del2            =   4.9558903921491E-07
(PID.TID 0000.0001) %MON dynstat_sst_max              =   2.6135867183361E+01
(PID.TID 0000.0001) %MON dynstat_sst_min              =   4.0613810956831E+00
(PID.TID 0000.0001) %MON dynstat_sst_mean             =   1.9645342075419E+01
(PID.TID 0000.0001) %MON dynstat_sst_sd               =   3.6376928956782E+00
(PID.TID 0000.0001) %MON dynstat_sst_del2             =   1.9099296395884E-05
(PID.TID 0000.0001) %MON dynstat_sss_max              =   3.7335162064890E+01
(PID.TID 0000.0001) %MON dynstat_sss_min              =   3.3089852626216E+01
(PID.TID 0000.0001) %MON dynstat_sss_mean             =   3.5868109206415E+01
(PID.TID 0000.0001) %MON dynstat_sss_sd               =   4.8725164931675E-01
(PID.TID 0000.0001) %MON dynstat_sss_del2             =   5.0103243184917E-06
(PID.TID 0000.0001) %MON forcing_qnet_max             =   1.0899370957244E+03
(PID.TID 0000.0001) %MON forcing_qnet_min             =  -1.6574943091357E+02
(PID.TID 0000.0001) %MON forcing_qnet_mean            =   3.2979505822497E+02
(PID.TID 0000.0001) %MON forcing_qnet_sd              =   2.1950043071806E+02
(PID.TID 0000.0001) %MON forcing_qnet_del2            =   1.1971793874317E-03
(PID.TID 0000.0001) %MON forcing_qsw_max              =   0.0000000000000E+00
(PID.TID 0000.0001) %MON forcing_qsw_min              =  -2.2673723790440E+01
(PID.TID 0000.0001) %MON forcing_qsw_mean             =  -7.5516559841549E-01
(PID.TID 0000.0001) %MON forcing_qsw_sd               =   2.3946038051327E+00
(PID.TID 0000.0001) %MON forcing_qsw_del2             =   7.7115860088814E-06
(PID.TID 0000.0001) %MON forcing_empmr_max            =   2.3008057638118E-04
(PID.TID 0000.0001) %MON forcing_empmr_min            =  -9.7120990166947E-04
(PID.TID 0000.0001) %MON forcing_empmr_mean           =   4.3294507421976E-05
(PID.TID 0000.0001) %MON forcing_empmr_sd             =   1.0531421966650E-04
(PID.TID 0000.0001) %MON forcing_empmr_del2           =   8.3810653965955E-10
(PID.TID 0000.0001) %MON forcing_fu_max               =   5.9441793272175E-01
(PID.TID 0000.0001) %MON forcing_fu_min               =  -1.8297112107713E-01
(PID.TID 0000.0001) %MON forcing_fu_mean              =   9.9683493673008E-02
(PID.TID 0000.0001) %MON forcing_fu_sd                =   1.3830254584667E-01
(PID.TID 0000.0001) %MON forcing_fu_del2              =   1.6929784402033E-07
(PID.TID 0000.0001) %MON forcing_fv_max               =   4.1575236891580E-01
(PID.TID 0000.0001) %MON forcing_fv_min               =  -4.7835918140947E-01
(PID.TID 0000.0001) %MON forcing_fv_mean              =   2.7214243125127E-02
(PID.TID 0000.0001) %MON forcing_fv_sd                =   1.5579029299358E-01
(PID.TID 0000.0001) %MON forcing_fv_del2              =   3.0658345775270E-07
(PID.TID 0000.0001) %MON trAdv_CFL_u_max              =   7.7705448510095E-02
(PID.TID 0000.0001) %MON trAdv_CFL_v_max              =   1.2148746768836E-01
(PID.TID 0000.0001) %MON trAdv_CFL_w_max              =   5.2129740061579E-01
(PID.TID 0000.0001) %MON advcfl_uvel_max              =   7.7705447452065E-02
(PID.TID 0000.0001) %MON advcfl_vvel_max              =   1.2152281585028E-01
(PID.TID 0000.0001) %MON advcfl_wvel_max              =   5.2284427717548E-01
(PID.TID 0000.0001) %MON advcfl_W_hf_max              =   5.2440036133374E-01
(PID.TID 0000.0001) %MON pe_b_mean                    =  -8.4379438023244E-05
(PID.TID 0000.0001) %MON ke_max                       =   1.6896647241456E+00
(PID.TID 0000.0001) %MON ke_mean                      =   2.5168538419828E-03
(PID.TID 0000.0001) %MON ke_vol                       =   4.5818637279720E+16
(PID.TID 0000.0001) %MON vort_r_min                   =  -4.2992097899569E-04
(PID.TID 0000.0001) %MON vort_r_max                   =   5.9972779654741E-04
(PID.TID 0000.0001) %MON vort_a_mean                  =   8.2147630071754E-05
(PID.TID 0000.0001) %MON vort_a_sd                    =   1.0122373903129E-05
(PID.TID 0000.0001) %MON vort_p_mean                  =   8.4848851610511E-05
(PID.TID 0000.0001) %MON vort_p_sd                    =   3.4985112640472E-05
(PID.TID 0000.0001) %MON surfExpan_theta_mean         =   2.3335360614421E-05
(PID.TID 0000.0001) %MON surfExpan_salt_mean          =  -3.0999468435295E-04
(PID.TID 0000.0001) // =======================================================
(PID.TID 0000.0001) // End MONITOR dynamic field statistics
(PID.TID 0000.0001) // =======================================================
(PID.TID 0000.0001) // =======================================================
(PID.TID 0000.0001) // Begin OBCS MONITOR field statistics
(PID.TID 0000.0001) // =======================================================
(PID.TID 0000.0001) %MON obc_N_vVel_max               =   6.9568554767849E-01
(PID.TID 0000.0001) %MON obc_N_vVel_min               =  -3.2199381926990E-01
(PID.TID 0000.0001) %MON obc_N_vVel_mean              =   1.3307490691962E-02
(PID.TID 0000.0001) %MON obc_N_vVel_sd                =   6.4696469699490E-02
(PID.TID 0000.0001) %MON obc_N_vVel_Int               =   1.9049785324164E+08
(PID.TID 0000.0001) %MON obc_S_vVel_max               =   1.9227748132589E+00
(PID.TID 0000.0001) %MON obc_S_vVel_min               =  -2.6207127723095E-01
(PID.TID 0000.0001) %MON obc_S_vVel_mean              =   2.7429399846448E-03
(PID.TID 0000.0001) %MON obc_S_vVel_sd                =   3.5810089513638E-02
(PID.TID 0000.0001) %MON obc_S_vVel_Int               =   8.3503046761390E+07
(PID.TID 0000.0001) %MON obc_N_theta_max              =   1.6390684840790E+01
(PID.TID 0000.0001) %MON obc_N_theta_min              =   1.8895908251163E+00
(PID.TID 0000.0001) %MON obc_N_theta_mean             =   5.1589657335888E+00
(PID.TID 0000.0001) %MON obc_N_theta_sd               =   3.4827153546990E+00
(PID.TID 0000.0001) %MON obc_S_theta_max              =   2.5544735811248E+01
(PID.TID 0000.0001) %MON obc_S_theta_min              =   1.4632964334612E+00
(PID.TID 0000.0001) %MON obc_S_theta_mean             =   5.4595561701622E+00
(PID.TID 0000.0001) %MON obc_S_theta_sd               =   5.3559292930331E+00
(PID.TID 0000.0001) %MON obc_N_salt_max               =   3.5910866831232E+01
(PID.TID 0000.0001) %MON obc_N_salt_min               =   3.3295025075312E+01
(PID.TID 0000.0001) %MON obc_N_salt_mean              =   3.5114563724377E+01
(PID.TID 0000.0001) %MON obc_N_salt_sd                =   3.0984909061059E-01
(PID.TID 0000.0001) %MON obc_S_salt_max               =   3.7318332861853E+01
(PID.TID 0000.0001) %MON obc_S_salt_min               =   3.4844694418258E+01
(PID.TID 0000.0001) %MON obc_S_salt_mean              =   3.5168372795001E+01
(PID.TID 0000.0001) %MON obc_S_salt_sd                =   4.5717040571680E-01
(PID.TID 0000.0001) // =======================================================
(PID.TID 0000.0001) // End OBCS MONITOR field statistics
(PID.TID 0000.0001) // =======================================================
(PID.TID 0000.0001) // =======================================================
(PID.TID 0000.0001) // Begin MONITOR EXF statistics
(PID.TID 0000.0001) // =======================================================
(PID.TID 0000.0001) %MON exf_tsnumber                 =                     2
(PID.TID 0000.0001) %MON exf_time_sec                 =   4.8000000000000E+02
(PID.TID 0000.0001) %MON exf_ustress_max              =   5.9108677263928E-01
(PID.TID 0000.0001) %MON exf_ustress_min              =  -1.8192390152420E-01
(PID.TID 0000.0001) %MON exf_ustress_mean             =   9.9294665129194E-02
(PID.TID 0000.0001) %MON exf_ustress_sd               =   1.3775363889327E-01
(PID.TID 0000.0001) %MON exf_ustress_del2             =   1.9416839983284E-07
(PID.TID 0000.0001) %MON exf_vstress_max              =   4.1462411489766E-01
(PID.TID 0000.0001) %MON exf_vstress_min              =  -4.7708575474291E-01
(PID.TID 0000.0001) %MON exf_vstress_mean             =   2.7365600622706E-02
(PID.TID 0000.0001) %MON exf_vstress_sd               =   1.5526131341147E-01
(PID.TID 0000.0001) %MON exf_vstress_del2             =   3.3011739282680E-07
(PID.TID 0000.0001) %MON exf_hflux_max                =   1.0708343303178E+03
(PID.TID 0000.0001) %MON exf_hflux_min                =  -1.3645392941303E+02
(PID.TID 0000.0001) %MON exf_hflux_mean               =   3.2486447955984E+02
(PID.TID 0000.0001) %MON exf_hflux_sd                 =   2.1324283698493E+02
(PID.TID 0000.0001) %MON exf_hflux_del2               =   8.7028589203569E-02
(PID.TID 0000.0001) %MON exf_sflux_max                =   2.2933704970253E-07
(PID.TID 0000.0001) %MON exf_sflux_min                =  -9.8445096220159E-07
(PID.TID 0000.0001) %MON exf_sflux_mean               =   4.3057370557744E-08
(PID.TID 0000.0001) %MON exf_sflux_sd                 =   1.0565969048020E-07
(PID.TID 0000.0001) %MON exf_sflux_del2               =   2.3716994296185E-11
(PID.TID 0000.0001) %MON exf_uwind_max                =   1.6004250955253E+01
(PID.TID 0000.0001) %MON exf_uwind_min                =  -1.0618983054349E+01
(PID.TID 0000.0001) %MON exf_uwind_mean               =   4.3764464364943E+00
(PID.TID 0000.0001) %MON exf_uwind_sd                 =   5.9340823794651E+00
(PID.TID 0000.0001) %MON exf_uwind_del2               =   1.6419236818941E-03
(PID.TID 0000.0001) %MON exf_vwind_max                =   1.5032775807702E+01
(PID.TID 0000.0001) %MON exf_vwind_min                =  -1.3202112374703E+01
(PID.TID 0000.0001) %MON exf_vwind_mean               =   1.7082783678484E+00
(PID.TID 0000.0001) %MON exf_vwind_sd                 =   7.4128477447397E+00
(PID.TID 0000.0001) %MON exf_vwind_del2               =   1.6937748076824E-03
(PID.TID 0000.0001) %MON exf_wspeed_max               =   1.8467319688286E+01
(PID.TID 0000.0001) %MON exf_wspeed_min               =   2.7407768485404E-02
(PID.TID 0000.0001) %MON exf_wspeed_mean              =   9.9666719310251E+00
(PID.TID 0000.0001) %MON exf_wspeed_sd                =   3.5917397436132E+00
(PID.TID 0000.0001) %MON exf_wspeed_del2              =   2.3589131081419E-03
(PID.TID 0000.0001) %MON exf_atemp_max                =   2.9779274795957E+02
(PID.TID 0000.0001) %MON exf_atemp_min                =   2.7426283835729E+02
(PID.TID 0000.0001) %MON exf_atemp_mean               =   2.8987764056426E+02
(PID.TID 0000.0001) %MON exf_atemp_sd                 =   4.3283369010815E+00
(PID.TID 0000.0001) %MON exf_atemp_del2               =   3.7040167378462E-03
(PID.TID 0000.0001) %MON exf_aqh_max                  =   1.4696383102622E-02
(PID.TID 0000.0001) %MON exf_aqh_min                  =   3.0546889351612E-03
(PID.TID 0000.0001) %MON exf_aqh_mean                 =   9.5877623016469E-03
(PID.TID 0000.0001) %MON exf_aqh_sd                   =   2.2740570134330E-03
(PID.TID 0000.0001) %MON exf_aqh_del2                 =   2.1311738572847E-06
(PID.TID 0000.0001) %MON exf_lwflux_max               =   1.5822213963560E+02
(PID.TID 0000.0001) %MON exf_lwflux_min               =   1.4021002338194E+00
(PID.TID 0000.0001) %MON exf_lwflux_mean              =   7.2794742961123E+01
(PID.TID 0000.0001) %MON exf_lwflux_sd                =   2.7817346095316E+01
(PID.TID 0000.0001) %MON exf_lwflux_del2              =   1.7294904283740E-02
(PID.TID 0000.0001) %MON exf_evap_max                 =   2.5111028233079E-07
(PID.TID 0000.0001) %MON exf_evap_min                 =  -4.2710987664123E-08
(PID.TID 0000.0001) %MON exf_evap_mean                =   7.9994345358688E-08
(PID.TID 0000.0001) %MON exf_evap_sd                  =   5.6394105515631E-08
(PID.TID 0000.0001) %MON exf_evap_del2                =   2.1676312682667E-11
(PID.TID 0000.0001) %MON exf_precip_max               =   9.8432422362057E-07
(PID.TID 0000.0001) %MON exf_precip_min               =   0.0000000000000E+00
(PID.TID 0000.0001) %MON exf_precip_mean              =   3.5348495228953E-08
(PID.TID 0000.0001) %MON exf_precip_sd                =   7.9006895622736E-08
(PID.TID 0000.0001) %MON exf_precip_del2              =   1.7450698046835E-11
(PID.TID 0000.0001) %MON exf_swflux_max               =   0.0000000000000E+00
(PID.TID 0000.0001) %MON exf_swflux_min               =  -2.1619131986234E+01
(PID.TID 0000.0001) %MON exf_swflux_mean              =  -7.2004161709384E-01
(PID.TID 0000.0001) %MON exf_swflux_sd                =   2.2832268839637E+00
(PID.TID 0000.0001) %MON exf_swflux_del2              =   4.9388970382612E-04
(PID.TID 0000.0001) %MON exf_swdown_max               =   2.4021257762482E+01
(PID.TID 0000.0001) %MON exf_swdown_min               =   0.0000000000000E+00
(PID.TID 0000.0001) %MON exf_swdown_mean              =   8.0004624121537E-01
(PID.TID 0000.0001) %MON exf_swdown_sd                =   2.5369187599597E+00
(PID.TID 0000.0001) %MON exf_swdown_del2              =   5.4876633758458E-04
(PID.TID 0000.0001) %MON exf_lwdown_max               =   4.0196545245311E+02
(PID.TID 0000.0001) %MON exf_lwdown_min               =   2.4870414881402E+02
(PID.TID 0000.0001) %MON exf_lwdown_mean              =   3.4205369811052E+02
(PID.TID 0000.0001) %MON exf_lwdown_sd                =   2.7526655924698E+01
(PID.TID 0000.0001) %MON exf_lwdown_del2              =   7.4678946286198E-02
(PID.TID 0000.0001) %MON exf_apressure_max            =   1.0299224584644E+05
(PID.TID 0000.0001) %MON exf_apressure_min            =   9.9658924340195E+04
(PID.TID 0000.0001) %MON exf_apressure_mean           =   1.0185423880019E+05
(PID.TID 0000.0001) %MON exf_apressure_sd             =   8.4021046263681E+02
(PID.TID 0000.0001) %MON exf_apressure_del2           =   2.2282482583295E+01
(PID.TID 0000.0001) %MON exf_runoff_max               =   4.4374798712073E-08
(PID.TID 0000.0001) %MON exf_runoff_min               =   0.0000000000000E+00
(PID.TID 0000.0001) %MON exf_runoff_mean              =   1.5884795719908E-09
(PID.TID 0000.0001) %MON exf_runoff_sd                =   5.3901959599983E-09
(PID.TID 0000.0001) %MON exf_runoff_del2              =   1.2741189756369E-12
(PID.TID 0000.0001) // =======================================================
(PID.TID 0000.0001) // End MONITOR EXF statistics
(PID.TID 0000.0001) // =======================================================
 cg2d: Sum(rhs),rhsMax =   2.00361346372482E+02  3.88089184888716E-02
(PID.TID 0000.0001)      cg2d_init_res =   3.21337321556586E+00
(PID.TID 0000.0001)      cg2d_iters(min,last) =      -1     320
(PID.TID 0000.0001)      cg2d_last_res =   6.87268098865712E-12
(PID.TID 0000.0001) // =======================================================
(PID.TID 0000.0001) // Begin MONITOR dynamic field statistics
(PID.TID 0000.0001) // =======================================================
(PID.TID 0000.0001) %MON time_tsnumber                =                     3
(PID.TID 0000.0001) %MON time_secondsf                =   7.2000000000000E+02
(PID.TID 0000.0001) %MON dynstat_eta_max              =   9.5534381740033E-01
(PID.TID 0000.0001) %MON dynstat_eta_min              =  -1.5283362142113E+00
(PID.TID 0000.0001) %MON dynstat_eta_mean             =  -6.8137085615733E-03
(PID.TID 0000.0001) %MON dynstat_eta_sd               =   1.2584559926683E-01
(PID.TID 0000.0001) %MON dynstat_eta_del2             =   2.9334043889269E-06
(PID.TID 0000.0001) %MON dynstat_uvel_max             =   1.2874561473173E+00
(PID.TID 0000.0001) %MON dynstat_uvel_min             =  -9.4419406110808E-01
(PID.TID 0000.0001) %MON dynstat_uvel_mean            =   4.2018865527651E-03
(PID.TID 0000.0001) %MON dynstat_uvel_sd              =   5.2356359455007E-02
(PID.TID 0000.0001) %MON dynstat_uvel_del2            =   4.6256256268810E-07
(PID.TID 0000.0001) %MON dynstat_vvel_max             =   1.9873820750718E+00
(PID.TID 0000.0001) %MON dynstat_vvel_min             =  -8.8361671687840E-01
(PID.TID 0000.0001) %MON dynstat_vvel_mean            =  -1.4763282452379E-03
(PID.TID 0000.0001) %MON dynstat_vvel_sd              =   4.8218287023235E-02
(PID.TID 0000.0001) %MON dynstat_vvel_del2            =   4.2451225455274E-07
(PID.TID 0000.0001) %MON dynstat_wvel_max             =   3.7261484470463E-02
(PID.TID 0000.0001) %MON dynstat_wvel_min             =  -3.2549791565925E-02
(PID.TID 0000.0001) %MON dynstat_wvel_mean            =  -5.5391214022803E-06
(PID.TID 0000.0001) %MON dynstat_wvel_sd              =   5.8953565534011E-04
(PID.TID 0000.0001) %MON dynstat_wvel_del2            =   8.9129877884042E-08
(PID.TID 0000.0001) %MON dynstat_theta_max            =   2.6140119097708E+01
(PID.TID 0000.0001) %MON dynstat_theta_min            =   1.4688638481386E+00
(PID.TID 0000.0001) %MON dynstat_theta_mean           =   5.5098521450055E+00
(PID.TID 0000.0001) %MON dynstat_theta_sd             =   4.7734364596735E+00
(PID.TID 0000.0001) %MON dynstat_theta_del2           =   4.0022965985356E-06
(PID.TID 0000.0001) %MON dynstat_salt_max             =   3.9180970632974E+01
(PID.TID 0000.0001) %MON dynstat_salt_min             =   3.3089992447087E+01
(PID.TID 0000.0001) %MON dynstat_salt_mean            =   3.5173370233911E+01
(PID.TID 0000.0001) %MON dynstat_salt_sd              =   3.7891344233240E-01
(PID.TID 0000.0001) %MON dynstat_salt_del2            =   4.9712445414434E-07
(PID.TID 0000.0001) %MON dynstat_sst_max              =   2.6133857217893E+01
(PID.TID 0000.0001) %MON dynstat_sst_min              =   4.0464817531775E+00
(PID.TID 0000.0001) %MON dynstat_sst_mean             =   1.9643557774153E+01
(PID.TID 0000.0001) %MON dynstat_sst_sd               =   3.6373452346339E+00
(PID.TID 0000.0001) %MON dynstat_sst_del2             =   1.9078382279846E-05
(PID.TID 0000.0001) %MON dynstat_sss_max              =   3.7335182109802E+01
(PID.TID 0000.0001) %MON dynstat_sss_min              =   3.3089992447087E+01
(PID.TID 0000.0001) %MON dynstat_sss_mean             =   3.5868173821539E+01
(PID.TID 0000.0001) %MON dynstat_sss_sd               =   4.8727952060474E-01
(PID.TID 0000.0001) %MON dynstat_sss_del2             =   4.9966411314643E-06
(PID.TID 0000.0001) %MON forcing_qnet_max             =   1.0871058595708E+03
(PID.TID 0000.0001) %MON forcing_qnet_min             =  -1.6753938149108E+02
(PID.TID 0000.0001) %MON forcing_qnet_mean            =   3.2931352917498E+02
(PID.TID 0000.0001) %MON forcing_qnet_sd              =   2.1900278697780E+02
(PID.TID 0000.0001) %MON forcing_qnet_del2            =   1.1923264335303E-03
(PID.TID 0000.0001) %MON forcing_qsw_max              =   0.0000000000000E+00
(PID.TID 0000.0001) %MON forcing_qsw_min              =  -2.1619131986234E+01
(PID.TID 0000.0001) %MON forcing_qsw_mean             =  -7.2004161709384E-01
(PID.TID 0000.0001) %MON forcing_qsw_sd               =   2.2832268839637E+00
(PID.TID 0000.0001) %MON forcing_qsw_del2             =   7.3529075898636E-06
(PID.TID 0000.0001) %MON forcing_empmr_max            =   2.2933704970253E-04
(PID.TID 0000.0001) %MON forcing_empmr_min            =  -9.8445096220159E-04
(PID.TID 0000.0001) %MON forcing_empmr_mean           =   4.3057370557744E-05
(PID.TID 0000.0001) %MON forcing_empmr_sd             =   1.0565969048020E-04
(PID.TID 0000.0001) %MON forcing_empmr_del2           =   8.4654017761560E-10
(PID.TID 0000.0001) %MON forcing_fu_max               =   5.9105590523859E-01
(PID.TID 0000.0001) %MON forcing_fu_min               =  -1.8192172506889E-01
(PID.TID 0000.0001) %MON forcing_fu_mean              =   9.9402941161524E-02
(PID.TID 0000.0001) %MON forcing_fu_sd                =   1.3778328503556E-01
(PID.TID 0000.0001) %MON forcing_fu_del2              =   1.7055234280449E-07
(PID.TID 0000.0001) %MON forcing_fv_max               =   4.1455706733748E-01
(PID.TID 0000.0001) %MON forcing_fv_min               =  -4.7708422511515E-01
(PID.TID 0000.0001) %MON forcing_fv_mean              =   2.7299834834862E-02
(PID.TID 0000.0001) %MON forcing_fv_sd                =   1.5527352761031E-01
(PID.TID 0000.0001) %MON forcing_fv_del2              =   3.0873032149663E-07
(PID.TID 0000.0001) %MON trAdv_CFL_u_max              =   7.8110946648570E-02
(PID.TID 0000.0001) %MON trAdv_CFL_v_max              =   1.2556957474416E-01
(PID.TID 0000.0001) %MON trAdv_CFL_w_max              =   5.0666716099787E-01
(PID.TID 0000.0001) %MON advcfl_uvel_max              =   7.8110945585019E-02
(PID.TID 0000.0001) %MON advcfl_vvel_max              =   1.2560611064161E-01
(PID.TID 0000.0001) %MON advcfl_wvel_max              =   5.0817062438362E-01
(PID.TID 0000.0001) %MON advcfl_W_hf_max              =   5.0968303695619E-01
(PID.TID 0000.0001) %MON pe_b_mean                    =  -1.4219628114579E-04
(PID.TID 0000.0001) %MON ke_max                       =   1.7543165157891E+00
(PID.TID 0000.0001) %MON ke_mean                      =   2.5241785909297E-03
(PID.TID 0000.0001) %MON ke_vol                       =   4.5818637279720E+16
(PID.TID 0000.0001) %MON vort_r_min                   =  -4.6756286626265E-04
(PID.TID 0000.0001) %MON vort_r_max                   =   6.0235406449027E-04
(PID.TID 0000.0001) %MON vort_a_mean                  =   8.2147629334876E-05
(PID.TID 0000.0001) %MON vort_a_sd                    =   1.0123549575938E-05
(PID.TID 0000.0001) %MON vort_p_mean                  =   8.4848850849403E-05
(PID.TID 0000.0001) %MON vort_p_sd                    =   3.4982661938563E-05
(PID.TID 0000.0001) %MON surfExpan_theta_mean         =  -1.1914649833140E-05
(PID.TID 0000.0001) %MON surfExpan_salt_mean          =  -3.8316331914330E-04
(PID.TID 0000.0001) // =======================================================
(PID.TID 0000.0001) // End MONITOR dynamic field statistics
(PID.TID 0000.0001) // =======================================================
(PID.TID 0000.0001) // =======================================================
(PID.TID 0000.0001) // Begin OBCS MONITOR field statistics
(PID.TID 0000.0001) // =======================================================
(PID.TID 0000.0001) %MON obc_N_vVel_max               =   6.9561473952318E-01
(PID.TID 0000.0001) %MON obc_N_vVel_min               =  -3.2210984061472E-01
(PID.TID 0000.0001) %MON obc_N_vVel_mean              =   1.3386422536623E-02
(PID.TID 0000.0001) %MON obc_N_vVel_sd                =   6.4693635573125E-02
(PID.TID 0000.0001) %MON obc_N_vVel_Int               =   1.9162776926476E+08
(PID.TID 0000.0001) %MON obc_S_vVel_max               =   1.9873820750718E+00
(PID.TID 0000.0001) %MON obc_S_vVel_min               =  -2.6220596923867E-01
(PID.TID 0000.0001) %MON obc_S_vVel_mean              =   2.0408797773561E-03
(PID.TID 0000.0001) %MON obc_S_vVel_sd                =   3.5842793074871E-02
(PID.TID 0000.0001) %MON obc_S_vVel_Int               =   6.2130298306548E+07
(PID.TID 0000.0001) %MON obc_N_theta_max              =   1.6390596738603E+01
(PID.TID 0000.0001) %MON obc_N_theta_min              =   1.8895908741817E+00
(PID.TID 0000.0001) %MON obc_N_theta_mean             =   5.1589583494387E+00
(PID.TID 0000.0001) %MON obc_N_theta_sd               =   3.4827060621667E+00
(PID.TID 0000.0001) %MON obc_S_theta_max              =   2.5544633062468E+01
(PID.TID 0000.0001) %MON obc_S_theta_min              =   1.4632968297484E+00
(PID.TID 0000.0001) %MON obc_S_theta_mean             =   5.4595553651376E+00
(PID.TID 0000.0001) %MON obc_S_theta_sd               =   5.3559254217424E+00
(PID.TID 0000.0001) %MON obc_N_salt_max               =   3.5910866422869E+01
(PID.TID 0000.0001) %MON obc_N_salt_min               =   3.3295030577945E+01
(PID.TID 0000.0001) %MON obc_N_salt_mean              =   3.5114563428390E+01
(PID.TID 0000.0001) %MON obc_N_salt_sd                =   3.0984897118963E-01
(PID.TID 0000.0001) %MON obc_S_salt_max               =   3.7318325977469E+01
(PID.TID 0000.0001) %MON obc_S_salt_min               =   3.4844694470478E+01
(PID.TID 0000.0001) %MON obc_S_salt_mean              =   3.5168372723084E+01
(PID.TID 0000.0001) %MON obc_S_salt_sd                =   4.5717005460235E-01
(PID.TID 0000.0001) // =======================================================
(PID.TID 0000.0001) // End OBCS MONITOR field statistics
(PID.TID 0000.0001) // =======================================================
(PID.TID 0000.0001) // =======================================================
(PID.TID 0000.0001) // Begin MONITOR EXF statistics
(PID.TID 0000.0001) // =======================================================
(PID.TID 0000.0001) %MON exf_tsnumber                 =                     3
(PID.TID 0000.0001) %MON exf_time_sec                 =   7.2000000000000E+02
(PID.TID 0000.0001) %MON exf_ustress_max              =   5.8804533167645E-01
(PID.TID 0000.0001) %MON exf_ustress_min              =  -1.8110999795798E-01
(PID.TID 0000.0001) %MON exf_ustress_mean             =   9.9048530121149E-02
(PID.TID 0000.0001) %MON exf_ustress_sd               =   1.3729752084154E-01
(PID.TID 0000.0001) %MON exf_ustress_del2             =   1.9337390607490E-07
(PID.TID 0000.0001) %MON exf_vstress_max              =   4.1353507390584E-01
(PID.TID 0000.0001) %MON exf_vstress_min              =  -4.7599665104741E-01
(PID.TID 0000.0001) %MON exf_vstress_mean             =   2.7458438058700E-02
(PID.TID 0000.0001) %MON exf_vstress_sd               =   1.5481134437470E-01
(PID.TID 0000.0001) %MON exf_vstress_del2             =   3.2936344494629E-07
(PID.TID 0000.0001) %MON exf_hflux_max                =   1.0686236170747E+03
(PID.TID 0000.0001) %MON exf_hflux_min                =  -1.3550567359461E+02
(PID.TID 0000.0001) %MON exf_hflux_mean               =   3.2446571634431E+02
(PID.TID 0000.0001) %MON exf_hflux_sd                 =   2.1280186410449E+02
(PID.TID 0000.0001) %MON exf_hflux_del2               =   8.6884871218500E-02
(PID.TID 0000.0001) %MON exf_sflux_max                =   2.2870280242254E-07
(PID.TID 0000.0001) %MON exf_sflux_min                =  -9.9767698711227E-07
(PID.TID 0000.0001) %MON exf_sflux_mean               =   4.2838301661861E-08
(PID.TID 0000.0001) %MON exf_sflux_sd                 =   1.0604202928185E-07
(PID.TID 0000.0001) %MON exf_sflux_del2               =   2.3756875843637E-11
(PID.TID 0000.0001) %MON exf_uwind_max                =   1.5943708945146E+01
(PID.TID 0000.0001) %MON exf_uwind_min                =  -1.0594328937328E+01
(PID.TID 0000.0001) %MON exf_uwind_mean               =   4.3744065111134E+00
(PID.TID 0000.0001) %MON exf_uwind_sd                 =   5.9282266480633E+00
(PID.TID 0000.0001) %MON exf_uwind_del2               =   1.6408202991161E-03
(PID.TID 0000.0001) %MON exf_vwind_max                =   1.5007142501538E+01
(PID.TID 0000.0001) %MON exf_vwind_min                =  -1.3181868304603E+01
(PID.TID 0000.0001) %MON exf_vwind_mean               =   1.7139527957986E+00
(PID.TID 0000.0001) %MON exf_vwind_sd                 =   7.4032975057173E+00
(PID.TID 0000.0001) %MON exf_vwind_del2               =   1.6919059353492E-03
(PID.TID 0000.0001) %MON exf_wspeed_max               =   1.8441315196241E+01
(PID.TID 0000.0001) %MON exf_wspeed_min               =   2.2458738059650E-02
(PID.TID 0000.0001) %MON exf_wspeed_mean              =   9.9581294467485E+00
(PID.TID 0000.0001) %MON exf_wspeed_sd                =   3.5862807449312E+00
(PID.TID 0000.0001) %MON exf_wspeed_del2              =   2.3568045184551E-03
(PID.TID 0000.0001) %MON exf_atemp_max                =   2.9779229393173E+02
(PID.TID 0000.0001) %MON exf_atemp_min                =   2.7427725624276E+02
(PID.TID 0000.0001) %MON exf_atemp_mean               =   2.8987771407738E+02
(PID.TID 0000.0001) %MON exf_atemp_sd                 =   4.3248398579078E+00
(PID.TID 0000.0001) %MON exf_atemp_del2               =   3.7039869728931E-03
(PID.TID 0000.0001) %MON exf_aqh_max                  =   1.4717987761025E-02
(PID.TID 0000.0001) %MON exf_aqh_min                  =   3.0626016377233E-03
(PID.TID 0000.0001) %MON exf_aqh_mean                 =   9.5873791191216E-03
(PID.TID 0000.0001) %MON exf_aqh_sd                   =   2.2715817283856E-03
(PID.TID 0000.0001) %MON exf_aqh_del2                 =   2.1310311697305E-06
(PID.TID 0000.0001) %MON exf_lwflux_max               =   1.5800823174529E+02
(PID.TID 0000.0001) %MON exf_lwflux_min               =   1.1951138870870E+00
(PID.TID 0000.0001) %MON exf_lwflux_mean              =   7.2783865152073E+01
(PID.TID 0000.0001) %MON exf_lwflux_sd                =   2.7826796453067E+01
(PID.TID 0000.0001) %MON exf_lwflux_del2              =   1.7292021949479E-02
(PID.TID 0000.0001) %MON exf_evap_max                 =   2.5058737595405E-07
(PID.TID 0000.0001) %MON exf_evap_min                 =  -4.2512437079918E-08
(PID.TID 0000.0001) %MON exf_evap_mean                =   7.9870134643017E-08
(PID.TID 0000.0001) %MON exf_evap_sd                  =   5.6265218237934E-08
(PID.TID 0000.0001) %MON exf_evap_del2                =   2.1634935647789E-11
(PID.TID 0000.0001) %MON exf_precip_max               =   9.9743451171246E-07
(PID.TID 0000.0001) %MON exf_precip_min               =   0.0000000000000E+00
(PID.TID 0000.0001) %MON exf_precip_mean              =   3.5443353409166E-08
(PID.TID 0000.0001) %MON exf_precip_sd                =   7.9474005611492E-08
(PID.TID 0000.0001) %MON exf_precip_del2              =   1.7537841875081E-11
(PID.TID 0000.0001) %MON exf_swflux_max               =   0.0000000000000E+00
(PID.TID 0000.0001) %MON exf_swflux_min               =  -2.0564540182027E+01
(PID.TID 0000.0001) %MON exf_swflux_mean              =  -6.8491763577218E-01
(PID.TID 0000.0001) %MON exf_swflux_sd                =   2.1718499627948E+00
(PID.TID 0000.0001) %MON exf_swflux_del2              =   4.6979752315168E-04
(PID.TID 0000.0001) %MON exf_swdown_max               =   2.2849489091142E+01
(PID.TID 0000.0001) %MON exf_swdown_min               =   0.0000000000000E+00
(PID.TID 0000.0001) %MON exf_swdown_mean              =   7.6101959530243E-01
(PID.TID 0000.0001) %MON exf_swdown_sd                =   2.4131666253275E+00
(PID.TID 0000.0001) %MON exf_swdown_del2              =   5.2199724794631E-04
(PID.TID 0000.0001) %MON exf_lwdown_max               =   4.0206744577272E+02
(PID.TID 0000.0001) %MON exf_lwdown_min               =   2.4875068355178E+02
(PID.TID 0000.0001) %MON exf_lwdown_mean              =   3.4205467619770E+02
(PID.TID 0000.0001) %MON exf_lwdown_sd                =   2.7520541403765E+01
(PID.TID 0000.0001) %MON exf_lwdown_del2              =   7.4679420132808E-02
(PID.TID 0000.0001) %MON exf_apressure_max            =   1.0298961137480E+05
(PID.TID 0000.0001) %MON exf_apressure_min            =   9.9657803756613E+04
(PID.TID 0000.0001) %MON exf_apressure_mean           =   1.0185260509244E+05
(PID.TID 0000.0001) %MON exf_apressure_sd             =   8.3962560671272E+02
(PID.TID 0000.0001) %MON exf_apressure_del2           =   2.2282134523874E+01
(PID.TID 0000.0001) %MON exf_runoff_max               =   4.4374798712073E-08
(PID.TID 0000.0001) %MON exf_runoff_min               =   0.0000000000000E+00
(PID.TID 0000.0001) %MON exf_runoff_mean              =   1.5884795719908E-09
(PID.TID 0000.0001) %MON exf_runoff_sd                =   5.3901959599983E-09
(PID.TID 0000.0001) %MON exf_runoff_del2              =   1.2741189756369E-12
(PID.TID 0000.0001) // =======================================================
(PID.TID 0000.0001) // End MONITOR EXF statistics
(PID.TID 0000.0001) // =======================================================
 cg2d: Sum(rhs),rhsMax =   2.95181185606381E+02  3.59151199061308E-02
(PID.TID 0000.0001)      cg2d_init_res =   2.14937516940572E+00
(PID.TID 0000.0001)      cg2d_iters(min,last) =      -1     318
(PID.TID 0000.0001)      cg2d_last_res =   6.77290726660288E-12
(PID.TID 0000.0001) // =======================================================
(PID.TID 0000.0001) // Begin MONITOR dynamic field statistics
(PID.TID 0000.0001) // =======================================================
(PID.TID 0000.0001) %MON time_tsnumber                =                     4
(PID.TID 0000.0001) %MON time_secondsf                =   9.6000000000000E+02
(PID.TID 0000.0001) %MON dynstat_eta_max              =   1.0179184833038E+00
(PID.TID 0000.0001) %MON dynstat_eta_min              =  -1.4922210914966E+00
(PID.TID 0000.0001) %MON dynstat_eta_mean             =  -1.0038256420190E-02
(PID.TID 0000.0001) %MON dynstat_eta_sd               =   1.4967205952254E-01
(PID.TID 0000.0001) %MON dynstat_eta_del2             =   2.7437964934573E-06
(PID.TID 0000.0001) %MON dynstat_uvel_max             =   1.2920776439339E+00
(PID.TID 0000.0001) %MON dynstat_uvel_min             =  -1.0241605267038E+00
(PID.TID 0000.0001) %MON dynstat_uvel_mean            =   4.2297418549113E-03
(PID.TID 0000.0001) %MON dynstat_uvel_sd              =   5.2407198129893E-02
(PID.TID 0000.0001) %MON dynstat_uvel_del2            =   4.6426439194556E-07
(PID.TID 0000.0001) %MON dynstat_vvel_max             =   2.0516105064972E+00
(PID.TID 0000.0001) %MON dynstat_vvel_min             =  -8.8520811881488E-01
(PID.TID 0000.0001) %MON dynstat_vvel_mean            =  -1.8569126262460E-03
(PID.TID 0000.0001) %MON dynstat_vvel_sd              =   4.8308931060456E-02
(PID.TID 0000.0001) %MON dynstat_vvel_del2            =   4.2444241004928E-07
(PID.TID 0000.0001) %MON dynstat_wvel_max             =   3.7313075398672E-02
(PID.TID 0000.0001) %MON dynstat_wvel_min             =  -3.1698284550560E-02
(PID.TID 0000.0001) %MON dynstat_wvel_mean            =  -6.7548297683260E-06
(PID.TID 0000.0001) %MON dynstat_wvel_sd              =   5.8866743606233E-04
(PID.TID 0000.0001) %MON dynstat_wvel_del2            =   8.5555159448180E-08
(PID.TID 0000.0001) %MON dynstat_theta_max            =   2.6139421105798E+01
(PID.TID 0000.0001) %MON dynstat_theta_min            =   1.4688639483514E+00
(PID.TID 0000.0001) %MON dynstat_theta_mean           =   5.5098453533409E+00
(PID.TID 0000.0001) %MON dynstat_theta_sd             =   4.7734069208948E+00
(PID.TID 0000.0001) %MON dynstat_theta_del2           =   4.0042931473498E-06
(PID.TID 0000.0001) %MON dynstat_salt_max             =   3.9178848143670E+01
(PID.TID 0000.0001) %MON dynstat_salt_min             =   3.3090137046641E+01
(PID.TID 0000.0001) %MON dynstat_salt_mean            =   3.5173369133945E+01
(PID.TID 0000.0001) %MON dynstat_salt_sd              =   3.7891280869282E-01
(PID.TID 0000.0001) %MON dynstat_salt_del2            =   4.9971741492335E-07
(PID.TID 0000.0001) %MON dynstat_sst_max              =   2.6132060176595E+01
(PID.TID 0000.0001) %MON dynstat_sst_min              =   4.0316116520837E+00
(PID.TID 0000.0001) %MON dynstat_sst_mean             =   1.9642034351093E+01
(PID.TID 0000.0001) %MON dynstat_sst_sd               =   3.6370632083743E+00
(PID.TID 0000.0001) %MON dynstat_sst_del2             =   1.9077675647124E-05
(PID.TID 0000.0001) %MON dynstat_sss_max              =   3.7335205315195E+01
(PID.TID 0000.0001) %MON dynstat_sss_min              =   3.3090137046641E+01
(PID.TID 0000.0001) %MON dynstat_sss_mean             =   3.5868232030503E+01
(PID.TID 0000.0001) %MON dynstat_sss_sd               =   4.8730375461693E-01
(PID.TID 0000.0001) %MON dynstat_sss_del2             =   4.9845367494966E-06
(PID.TID 0000.0001) %MON forcing_qnet_max             =   1.0848330024329E+03
(PID.TID 0000.0001) %MON forcing_qnet_min             =  -1.6932453324770E+02
(PID.TID 0000.0001) %MON forcing_qnet_mean            =   3.2889684910952E+02
(PID.TID 0000.0001) %MON forcing_qnet_sd              =   2.1856799422987E+02
(PID.TID 0000.0001) %MON forcing_qnet_del2            =   1.1896019766258E-03
(PID.TID 0000.0001) %MON forcing_qsw_max              =   0.0000000000000E+00
(PID.TID 0000.0001) %MON forcing_qsw_min              =  -2.0564540182027E+01
(PID.TID 0000.0001) %MON forcing_qsw_mean             =  -6.8491763577218E-01
(PID.TID 0000.0001) %MON forcing_qsw_sd               =   2.1718499627948E+00
(PID.TID 0000.0001) %MON forcing_qsw_del2             =   6.9942291708459E-06
(PID.TID 0000.0001) %MON forcing_empmr_max            =   2.2870280242254E-04
(PID.TID 0000.0001) %MON forcing_empmr_min            =  -9.9767698711227E-04
(PID.TID 0000.0001) %MON forcing_empmr_mean           =   4.2838301661861E-05
(PID.TID 0000.0001) %MON forcing_empmr_sd             =   1.0604202928185E-04
(PID.TID 0000.0001) %MON forcing_empmr_del2           =   8.5575571939910E-10
(PID.TID 0000.0001) %MON forcing_fu_max               =   5.8801480288873E-01
(PID.TID 0000.0001) %MON forcing_fu_min               =  -1.8110745244686E-01
(PID.TID 0000.0001) %MON forcing_fu_mean              =   9.9156439983475E-02
(PID.TID 0000.0001) %MON forcing_fu_sd                =   1.3732697878665E-01
(PID.TID 0000.0001) %MON forcing_fu_del2              =   1.6965382501617E-07
(PID.TID 0000.0001) %MON forcing_fv_max               =   4.1344511024017E-01
(PID.TID 0000.0001) %MON forcing_fv_min               =  -4.7599641983462E-01
(PID.TID 0000.0001) %MON forcing_fv_mean              =   2.7392584696130E-02
(PID.TID 0000.0001) %MON forcing_fv_sd                =   1.5482317496130E-01
(PID.TID 0000.0001) %MON forcing_fv_del2              =   3.0855747623871E-07
(PID.TID 0000.0001) %MON trAdv_CFL_u_max              =   7.8391336374003E-02
(PID.TID 0000.0001) %MON trAdv_CFL_v_max              =   1.2962774600461E-01
(PID.TID 0000.0001) %MON trAdv_CFL_w_max              =   4.8989073413188E-01
(PID.TID 0000.0001) %MON advcfl_uvel_max              =   7.8391335306634E-02
(PID.TID 0000.0001) %MON advcfl_vvel_max              =   1.2966546267318E-01
(PID.TID 0000.0001) %MON advcfl_wvel_max              =   4.9134441583554E-01
(PID.TID 0000.0001) %MON advcfl_W_hf_max              =   4.9280675040648E-01
(PID.TID 0000.0001) %MON pe_b_mean                    =  -2.1139116643564E-04
(PID.TID 0000.0001) %MON ke_max                       =   1.8786156880080E+00
(PID.TID 0000.0001) %MON ke_mean                      =   2.5319188875130E-03
(PID.TID 0000.0001) %MON ke_vol                       =   4.5818637279720E+16
(PID.TID 0000.0001) %MON vort_r_min                   =  -4.8767100076431E-04
(PID.TID 0000.0001) %MON vort_r_max                   =   5.7531346874695E-04
(PID.TID 0000.0001) %MON vort_a_mean                  =   8.2147628585905E-05
(PID.TID 0000.0001) %MON vort_a_sd                    =   1.0125126251158E-05
(PID.TID 0000.0001) %MON vort_p_mean                  =   8.4848850075804E-05
(PID.TID 0000.0001) %MON vort_p_sd                    =   3.4980833789235E-05
(PID.TID 0000.0001) %MON surfExpan_theta_mean         =  -5.2816287260737E-05
(PID.TID 0000.0001) %MON surfExpan_salt_mean          =  -4.5625663147647E-04
(PID.TID 0000.0001) // =======================================================
(PID.TID 0000.0001) // End MONITOR dynamic field statistics
(PID.TID 0000.0001) // =======================================================
(PID.TID 0000.0001) // =======================================================
(PID.TID 0000.0001) // Begin OBCS MONITOR field statistics
(PID.TID 0000.0001) // =======================================================
(PID.TID 0000.0001) %MON obc_N_vVel_max               =   6.9553192130751E-01
(PID.TID 0000.0001) %MON obc_N_vVel_min               =  -3.2224932600846E-01
(PID.TID 0000.0001) %MON obc_N_vVel_mean              =   1.3451067297277E-02
(PID.TID 0000.0001) %MON obc_N_vVel_sd                =   6.4688179853585E-02
(PID.TID 0000.0001) %MON obc_N_vVel_Int               =   1.9255316447359E+08
(PID.TID 0000.0001) %MON obc_S_vVel_max               =   2.0516105064972E+00
(PID.TID 0000.0001) %MON obc_S_vVel_min               =  -2.6233395479551E-01
(PID.TID 0000.0001) %MON obc_S_vVel_mean              =   1.3372914318189E-03
(PID.TID 0000.0001) %MON obc_S_vVel_sd                =   3.5879578143183E-02
(PID.TID 0000.0001) %MON obc_S_vVel_Int               =   4.0711028892322E+07
(PID.TID 0000.0001) %MON obc_N_theta_max              =   1.6390508636415E+01
(PID.TID 0000.0001) %MON obc_N_theta_min              =   1.8895909232471E+00
(PID.TID 0000.0001) %MON obc_N_theta_mean             =   5.1589509652887E+00
(PID.TID 0000.0001) %MON obc_N_theta_sd               =   3.4826967698724E+00
(PID.TID 0000.0001) %MON obc_S_theta_max              =   2.5544530313689E+01
(PID.TID 0000.0001) %MON obc_S_theta_min              =   1.4632972260357E+00
(PID.TID 0000.0001) %MON obc_S_theta_mean             =   5.4595545601130E+00
(PID.TID 0000.0001) %MON obc_S_theta_sd               =   5.3559215504875E+00
(PID.TID 0000.0001) %MON obc_N_salt_max               =   3.5910866014505E+01
(PID.TID 0000.0001) %MON obc_N_salt_min               =   3.3295036080578E+01
(PID.TID 0000.0001) %MON obc_N_salt_mean              =   3.5114563132403E+01
(PID.TID 0000.0001) %MON obc_N_salt_sd                =   3.0984885181404E-01
(PID.TID 0000.0001) %MON obc_S_salt_max               =   3.7318319093085E+01
(PID.TID 0000.0001) %MON obc_S_salt_min               =   3.4844694522698E+01
(PID.TID 0000.0001) %MON obc_S_salt_mean              =   3.5168372651167E+01
(PID.TID 0000.0001) %MON obc_S_salt_sd                =   4.5716970351760E-01
(PID.TID 0000.0001) // =======================================================
(PID.TID 0000.0001) // End OBCS MONITOR field statistics
(PID.TID 0000.0001) // =======================================================
(PID.TID 0000.0001) // =======================================================
(PID.TID 0000.0001) // Begin MONITOR EXF statistics
(PID.TID 0000.0001) // =======================================================
(PID.TID 0000.0001) %MON exf_tsnumber                 =                     4
(PID.TID 0000.0001) %MON exf_time_sec                 =   9.6000000000000E+02
(PID.TID 0000.0001) %MON exf_ustress_max              =   5.8525729493421E-01
(PID.TID 0000.0001) %MON exf_ustress_min              =  -1.8040337437945E-01
(PID.TID 0000.0001) %MON exf_ustress_mean             =   9.8826467257859E-02
(PID.TID 0000.0001) %MON exf_ustress_sd               =   1.3688841774681E-01
(PID.TID 0000.0001) %MON exf_ustress_del2             =   1.9253334072796E-07
(PID.TID 0000.0001) %MON exf_vstress_max              =   4.1257979647264E-01
(PID.TID 0000.0001) %MON exf_vstress_min              =  -4.7511369534559E-01
(PID.TID 0000.0001) %MON exf_vstress_mean             =   2.7557821446787E-02
(PID.TID 0000.0001) %MON exf_vstress_sd               =   1.5441255283943E-01
(PID.TID 0000.0001) %MON exf_vstress_del2             =   3.2915605525172E-07
(PID.TID 0000.0001) %MON exf_hflux_max                =   1.0667601334854E+03
(PID.TID 0000.0001) %MON exf_hflux_min                =  -1.3460160096336E+02
(PID.TID 0000.0001) %MON exf_hflux_mean               =   3.2411136120830E+02
(PID.TID 0000.0001) %MON exf_hflux_sd                 =   2.1240322238186E+02
(PID.TID 0000.0001) %MON exf_hflux_del2               =   8.6755878876805E-02
(PID.TID 0000.0001) %MON exf_sflux_max                =   2.2814382352965E-07
(PID.TID 0000.0001) %MON exf_sflux_min                =  -1.0108913678911E-06
(PID.TID 0000.0001) %MON exf_sflux_mean               =   4.2631996033826E-08
(PID.TID 0000.0001) %MON exf_sflux_sd                 =   1.0645777295630E-07
(PID.TID 0000.0001) %MON exf_sflux_del2               =   2.3804598552814E-11
(PID.TID 0000.0001) %MON exf_uwind_max                =   1.5885260227712E+01
(PID.TID 0000.0001) %MON exf_uwind_min                =  -1.0571168128538E+01
(PID.TID 0000.0001) %MON exf_uwind_mean               =   4.3726570726250E+00
(PID.TID 0000.0001) %MON exf_uwind_sd                 =   5.9230002258853E+00
(PID.TID 0000.0001) %MON exf_uwind_del2               =   1.6398689273257E-03
(PID.TID 0000.0001) %MON exf_vwind_max                =   1.4982177981273E+01
(PID.TID 0000.0001) %MON exf_vwind_min                =  -1.3162821357416E+01
(PID.TID 0000.0001) %MON exf_vwind_mean               =   1.7197033175674E+00
(PID.TID 0000.0001) %MON exf_vwind_sd                 =   7.3945432724963E+00
(PID.TID 0000.0001) %MON exf_vwind_del2               =   1.6902223423945E-03
(PID.TID 0000.0001) %MON exf_wspeed_max               =   1.8418527187786E+01
(PID.TID 0000.0001) %MON exf_wspeed_min               =   6.3140967607987E-02
(PID.TID 0000.0001) %MON exf_wspeed_mean              =   9.9504756070828E+00
(PID.TID 0000.0001) %MON exf_wspeed_sd                =   3.5814447437783E+00
(PID.TID 0000.0001) %MON exf_wspeed_del2              =   2.3549347177165E-03
(PID.TID 0000.0001) %MON exf_atemp_max                =   2.9779183990389E+02
(PID.TID 0000.0001) %MON exf_atemp_min                =   2.7428838340740E+02
(PID.TID 0000.0001) %MON exf_atemp_mean               =   2.8987778759051E+02
(PID.TID 0000.0001) %MON exf_atemp_sd                 =   4.3213762771205E+00
(PID.TID 0000.0001) %MON exf_atemp_del2               =   3.7039593888595E-03
(PID.TID 0000.0001) %MON exf_aqh_max                  =   1.4739592419428E-02
(PID.TID 0000.0001) %MON exf_aqh_min                  =   3.0705143402853E-03
(PID.TID 0000.0001) %MON exf_aqh_mean                 =   9.5869959365963E-03
(PID.TID 0000.0001) %MON exf_aqh_sd                   =   2.2691534296254E-03
(PID.TID 0000.0001) %MON exf_aqh_del2                 =   2.1308911299642E-06
(PID.TID 0000.0001) %MON exf_lwflux_max               =   1.5779521115267E+02
(PID.TID 0000.0001) %MON exf_lwflux_min               =   9.8810862591437E-01
(PID.TID 0000.0001) %MON exf_lwflux_mean              =   7.2774442180764E+01
(PID.TID 0000.0001) %MON exf_lwflux_sd                =   2.7839811940971E+01
(PID.TID 0000.0001) %MON exf_lwflux_del2              =   1.7289745610727E-02
(PID.TID 0000.0001) %MON exf_evap_max                 =   2.5015286369343E-07
(PID.TID 0000.0001) %MON exf_evap_min                 =  -4.2338300148578E-08
(PID.TID 0000.0001) %MON exf_evap_mean                =   7.9758687195196E-08
(PID.TID 0000.0001) %MON exf_evap_sd                  =   5.6147794711974E-08
(PID.TID 0000.0001) %MON exf_evap_del2                =   2.1597605090228E-11
(PID.TID 0000.0001) %MON exf_precip_max               =   1.0105447998043E-06
(PID.TID 0000.0001) %MON exf_precip_min               =   0.0000000000000E+00
(PID.TID 0000.0001) %MON exf_precip_mean              =   3.5538211589379E-08
(PID.TID 0000.0001) %MON exf_precip_sd                =   7.9974710923049E-08
(PID.TID 0000.0001) %MON exf_precip_del2              =   1.7631376723747E-11
(PID.TID 0000.0001) %MON exf_swflux_max               =   0.0000000000000E+00
(PID.TID 0000.0001) %MON exf_swflux_min               =  -1.9509948377821E+01
(PID.TID 0000.0001) %MON exf_swflux_mean              =  -6.4979365445054E-01
(PID.TID 0000.0001) %MON exf_swflux_sd                =   2.0604730416258E+00
(PID.TID 0000.0001) %MON exf_swflux_del2              =   4.4570534247723E-04
(PID.TID 0000.0001) %MON exf_swdown_max               =   2.1677720419801E+01
(PID.TID 0000.0001) %MON exf_swdown_min               =   0.0000000000000E+00
(PID.TID 0000.0001) %MON exf_swdown_mean              =   7.2199294938948E-01
(PID.TID 0000.0001) %MON exf_swdown_sd                =   2.2894144906954E+00
(PID.TID 0000.0001) %MON exf_swdown_del2              =   4.9522815830804E-04
(PID.TID 0000.0001) %MON exf_lwdown_max               =   4.0216943909233E+02
(PID.TID 0000.0001) %MON exf_lwdown_min               =   2.4879721828954E+02
(PID.TID 0000.0001) %MON exf_lwdown_mean              =   3.4205565428488E+02
(PID.TID 0000.0001) %MON exf_lwdown_sd                =   2.7517616747387E+01
(PID.TID 0000.0001) %MON exf_lwdown_del2              =   7.4679956539186E-02
(PID.TID 0000.0001) %MON exf_apressure_max            =   1.0298704972532E+05
(PID.TID 0000.0001) %MON exf_apressure_min            =   9.9656683173032E+04
(PID.TID 0000.0001) %MON exf_apressure_mean           =   1.0185097138469E+05
(PID.TID 0000.0001) %MON exf_apressure_sd             =   8.3904579351201E+02
(PID.TID 0000.0001) %MON exf_apressure_del2           =   2.2281786474784E+01
(PID.TID 0000.0001) %MON exf_runoff_max               =   4.4374798712073E-08
(PID.TID 0000.0001) %MON exf_runoff_min               =   0.0000000000000E+00
(PID.TID 0000.0001) %MON exf_runoff_mean              =   1.5884795719908E-09
(PID.TID 0000.0001) %MON exf_runoff_sd                =   5.3901959599983E-09
(PID.TID 0000.0001) %MON exf_runoff_del2              =   1.2741189756369E-12
(PID.TID 0000.0001) // =======================================================
(PID.TID 0000.0001) // End MONITOR EXF statistics
(PID.TID 0000.0001) // =======================================================
 cg2d: Sum(rhs),rhsMax =   4.03838863826267E+02  3.86692397468995E-02
(PID.TID 0000.0001)      cg2d_init_res =   1.83903983838245E+00
(PID.TID 0000.0001)      cg2d_iters(min,last) =      -1     317
(PID.TID 0000.0001)      cg2d_last_res =   6.56733406627414E-12
(PID.TID 0000.0001) // =======================================================
(PID.TID 0000.0001) // Begin MONITOR dynamic field statistics
(PID.TID 0000.0001) // =======================================================
(PID.TID 0000.0001) %MON time_tsnumber                =                     5
(PID.TID 0000.0001) %MON time_secondsf                =   1.2000000000000E+03
(PID.TID 0000.0001) %MON dynstat_eta_max              =   1.0390022987524E+00
(PID.TID 0000.0001) %MON dynstat_eta_min              =  -1.4232022834414E+00
(PID.TID 0000.0001) %MON dynstat_eta_mean             =  -1.3733389068137E-02
(PID.TID 0000.0001) %MON dynstat_eta_sd               =   1.6917955462037E-01
(PID.TID 0000.0001) %MON dynstat_eta_del2             =   2.4998589193946E-06
(PID.TID 0000.0001) %MON dynstat_uvel_max             =   1.2952072774248E+00
(PID.TID 0000.0001) %MON dynstat_uvel_min             =  -9.8551400853133E-01
(PID.TID 0000.0001) %MON dynstat_uvel_mean            =   4.2249353142522E-03
(PID.TID 0000.0001) %MON dynstat_uvel_sd              =   5.2433163993652E-02
(PID.TID 0000.0001) %MON dynstat_uvel_del2            =   4.6756874553978E-07
(PID.TID 0000.0001) %MON dynstat_vvel_max             =   2.1154440145923E+00
(PID.TID 0000.0001) %MON dynstat_vvel_min             =  -8.8651994190111E-01
(PID.TID 0000.0001) %MON dynstat_vvel_mean            =  -2.2114583308500E-03
(PID.TID 0000.0001) %MON dynstat_vvel_sd              =   4.8431624688701E-02
(PID.TID 0000.0001) %MON dynstat_vvel_del2            =   4.2751109916185E-07
(PID.TID 0000.0001) %MON dynstat_wvel_max             =   3.7086896081797E-02
(PID.TID 0000.0001) %MON dynstat_wvel_min             =  -3.1011421097964E-02
(PID.TID 0000.0001) %MON dynstat_wvel_mean            =  -7.9621677630853E-06
(PID.TID 0000.0001) %MON dynstat_wvel_sd              =   5.8716860210757E-04
(PID.TID 0000.0001) %MON dynstat_wvel_del2            =   8.0845496760400E-08
(PID.TID 0000.0001) %MON dynstat_theta_max            =   2.6138683806432E+01
(PID.TID 0000.0001) %MON dynstat_theta_min            =   1.4688640568771E+00
(PID.TID 0000.0001) %MON dynstat_theta_mean           =   5.5098404044221E+00
(PID.TID 0000.0001) %MON dynstat_theta_sd             =   4.7733802041006E+00
(PID.TID 0000.0001) %MON dynstat_theta_del2           =   4.0081487714488E-06
(PID.TID 0000.0001) %MON dynstat_salt_max             =   3.9176400302580E+01
(PID.TID 0000.0001) %MON dynstat_salt_min             =   3.3090283099856E+01
(PID.TID 0000.0001) %MON dynstat_salt_mean            =   3.5173368229535E+01
(PID.TID 0000.0001) %MON dynstat_salt_sd              =   3.7891265989299E-01
(PID.TID 0000.0001) %MON dynstat_salt_del2            =   5.0302651642964E-07
(PID.TID 0000.0001) %MON dynstat_sst_max              =   2.6130409652539E+01
(PID.TID 0000.0001) %MON dynstat_sst_min              =   4.0166892513313E+00
(PID.TID 0000.0001) %MON dynstat_sst_mean             =   1.9640697070610E+01
(PID.TID 0000.0001) %MON dynstat_sst_sd               =   3.6368268382811E+00
(PID.TID 0000.0001) %MON dynstat_sst_del2             =   1.9086905549338E-05
(PID.TID 0000.0001) %MON dynstat_sss_max              =   3.7335231919407E+01
(PID.TID 0000.0001) %MON dynstat_sss_min              =   3.3090283099856E+01
(PID.TID 0000.0001) %MON dynstat_sss_mean             =   3.5868284990665E+01
(PID.TID 0000.0001) %MON dynstat_sss_sd               =   4.8732551844848E-01
(PID.TID 0000.0001) %MON dynstat_sss_del2             =   4.9735691898304E-06
(PID.TID 0000.0001) %MON forcing_qnet_max             =   1.0829143492414E+03
(PID.TID 0000.0001) %MON forcing_qnet_min             =  -1.7110741487607E+02
(PID.TID 0000.0001) %MON forcing_qnet_mean            =   3.2852575348363E+02
(PID.TID 0000.0001) %MON forcing_qnet_sd              =   2.1817651234083E+02
(PID.TID 0000.0001) %MON forcing_qnet_del2            =   1.1876545872004E-03
(PID.TID 0000.0001) %MON forcing_qsw_max              =   0.0000000000000E+00
(PID.TID 0000.0001) %MON forcing_qsw_min              =  -1.9509948377821E+01
(PID.TID 0000.0001) %MON forcing_qsw_mean             =  -6.4979365445054E-01
(PID.TID 0000.0001) %MON forcing_qsw_sd               =   2.0604730416258E+00
(PID.TID 0000.0001) %MON forcing_qsw_del2             =   6.6355507518281E-06
(PID.TID 0000.0001) %MON forcing_empmr_max            =   2.2814382352965E-04
(PID.TID 0000.0001) %MON forcing_empmr_min            =  -1.0108913678911E-03
(PID.TID 0000.0001) %MON forcing_empmr_mean           =   4.2631996033826E-05
(PID.TID 0000.0001) %MON forcing_empmr_sd             =   1.0645777295630E-04
(PID.TID 0000.0001) %MON forcing_empmr_del2           =   8.6574431315745E-10
(PID.TID 0000.0001) %MON forcing_fu_max               =   5.8522981184230E-01
(PID.TID 0000.0001) %MON forcing_fu_min               =  -1.8040091156201E-01
(PID.TID 0000.0001) %MON forcing_fu_mean              =   9.8934041595887E-02
(PID.TID 0000.0001) %MON forcing_fu_sd                =   1.3691770447478E-01
(PID.TID 0000.0001) %MON forcing_fu_del2              =   1.6876850639083E-07
(PID.TID 0000.0001) %MON forcing_fv_max               =   4.1245567673996E-01
(PID.TID 0000.0001) %MON forcing_fv_min               =  -4.7511090306125E-01
(PID.TID 0000.0001) %MON forcing_fv_mean              =   2.7491878500698E-02
(PID.TID 0000.0001) %MON forcing_fv_sd                =   1.5442396925232E-01
(PID.TID 0000.0001) %MON forcing_fv_del2              =   3.0827339144386E-07
(PID.TID 0000.0001) %MON trAdv_CFL_u_max              =   7.8581213625474E-02
(PID.TID 0000.0001) %MON trAdv_CFL_v_max              =   1.3366096466269E-01
(PID.TID 0000.0001) %MON trAdv_CFL_w_max              =   4.6479878823060E-01
(PID.TID 0000.0001) %MON advcfl_uvel_max              =   7.8581212555520E-02
(PID.TID 0000.0001) %MON advcfl_vvel_max              =   1.3369985484216E-01
(PID.TID 0000.0001) %MON advcfl_wvel_max              =   4.6617801312149E-01
(PID.TID 0000.0001) %MON advcfl_W_hf_max              =   4.6756544768435E-01
(PID.TID 0000.0001) %MON pe_b_mean                    =  -2.9254459363608E-04
(PID.TID 0000.0001) %MON ke_max                       =   2.0247632571607E+00
(PID.TID 0000.0001) %MON ke_mean                      =   2.5398676863426E-03
(PID.TID 0000.0001) %MON ke_vol                       =   4.5818637279720E+16
(PID.TID 0000.0001) %MON vort_r_min                   =  -4.9876673315671E-04
(PID.TID 0000.0001) %MON vort_r_max                   =   5.4968963156908E-04
(PID.TID 0000.0001) %MON vort_a_mean                  =   8.2147627825489E-05
(PID.TID 0000.0001) %MON vort_a_sd                    =   1.0127413161195E-05
(PID.TID 0000.0001) %MON vort_p_mean                  =   8.4848849290384E-05
(PID.TID 0000.0001) %MON vort_p_sd                    =   3.4979944168355E-05
(PID.TID 0000.0001) %MON surfExpan_theta_mean         =  -9.4694667824357E-05
(PID.TID 0000.0001) %MON surfExpan_salt_mean          =  -5.2861385607836E-04
(PID.TID 0000.0001) // =======================================================
(PID.TID 0000.0001) // End MONITOR dynamic field statistics
(PID.TID 0000.0001) // =======================================================
(PID.TID 0000.0001) // =======================================================
(PID.TID 0000.0001) // Begin OBCS MONITOR field statistics
(PID.TID 0000.0001) // =======================================================
(PID.TID 0000.0001) %MON obc_N_vVel_max               =   6.9543718136846E-01
(PID.TID 0000.0001) %MON obc_N_vVel_min               =  -3.2241212391701E-01
(PID.TID 0000.0001) %MON obc_N_vVel_mean              =   1.3501340616437E-02
(PID.TID 0000.0001) %MON obc_N_vVel_sd                =   6.4680224712309E-02
(PID.TID 0000.0001) %MON obc_N_vVel_Int               =   1.9327283128359E+08
(PID.TID 0000.0001) %MON obc_S_vVel_max               =   2.1154440145923E+00
(PID.TID 0000.0001) %MON obc_S_vVel_min               =  -2.6245505327119E-01
(PID.TID 0000.0001) %MON obc_S_vVel_mean              =   6.3302524519791E-04
(PID.TID 0000.0001) %MON obc_S_vVel_sd                =   3.5920573633926E-02
(PID.TID 0000.0001) %MON obc_S_vVel_Int               =   1.9271124029987E+07
(PID.TID 0000.0001) %MON obc_N_theta_max              =   1.6390420534228E+01
(PID.TID 0000.0001) %MON obc_N_theta_min              =   1.8895909723125E+00
(PID.TID 0000.0001) %MON obc_N_theta_mean             =   5.1589435811386E+00
(PID.TID 0000.0001) %MON obc_N_theta_sd               =   3.4826874778161E+00
(PID.TID 0000.0001) %MON obc_S_theta_max              =   2.5544427564909E+01
(PID.TID 0000.0001) %MON obc_S_theta_min              =   1.4632976223230E+00
(PID.TID 0000.0001) %MON obc_S_theta_mean             =   5.4595537550885E+00
(PID.TID 0000.0001) %MON obc_S_theta_sd               =   5.3559176792685E+00
(PID.TID 0000.0001) %MON obc_N_salt_max               =   3.5910865606142E+01
(PID.TID 0000.0001) %MON obc_N_salt_min               =   3.3295041583212E+01
(PID.TID 0000.0001) %MON obc_N_salt_mean              =   3.5114562836417E+01
(PID.TID 0000.0001) %MON obc_N_salt_sd                =   3.0984873248609E-01
(PID.TID 0000.0001) %MON obc_S_salt_max               =   3.7318312208701E+01
(PID.TID 0000.0001) %MON obc_S_salt_min               =   3.4844694574919E+01
(PID.TID 0000.0001) %MON obc_S_salt_mean              =   3.5168372579251E+01
(PID.TID 0000.0001) %MON obc_S_salt_sd                =   4.5716935243014E-01
(PID.TID 0000.0001) // =======================================================
(PID.TID 0000.0001) // End OBCS MONITOR field statistics
(PID.TID 0000.0001) // =======================================================
(PID.TID 0000.0001) // =======================================================
(PID.TID 0000.0001) // Begin MONITOR EXF statistics
(PID.TID 0000.0001) // =======================================================
(PID.TID 0000.0001) %MON exf_tsnumber                 =                     5
(PID.TID 0000.0001) %MON exf_time_sec                 =   1.2000000000000E+03
(PID.TID 0000.0001) %MON exf_ustress_max              =   5.8267828672886E-01
(PID.TID 0000.0001) %MON exf_ustress_min              =  -1.7974612686755E-01
(PID.TID 0000.0001) %MON exf_ustress_mean             =   9.8622459157749E-02
(PID.TID 0000.0001) %MON exf_ustress_sd               =   1.3651686665823E-01
(PID.TID 0000.0001) %MON exf_ustress_del2             =   1.9244203840302E-07
(PID.TID 0000.0001) %MON exf_vstress_max              =   4.1174236143972E-01
(PID.TID 0000.0001) %MON exf_vstress_min              =  -4.7443547229612E-01
(PID.TID 0000.0001) %MON exf_vstress_mean             =   2.7663000116728E-02
(PID.TID 0000.0001) %MON exf_vstress_sd               =   1.5405519141142E-01
(PID.TID 0000.0001) %MON exf_vstress_del2             =   3.3070171157328E-07
(PID.TID 0000.0001) %MON exf_hflux_max                =   1.0651043060036E+03
(PID.TID 0000.0001) %MON exf_hflux_min                =  -1.3376087150480E+02
(PID.TID 0000.0001) %MON exf_hflux_mean               =   3.2379081688147E+02
(PID.TID 0000.0001) %MON exf_hflux_sd                 =   2.1203621536897E+02
(PID.TID 0000.0001) %MON exf_hflux_del2               =   8.6637800395594E-02
(PID.TID 0000.0001) %MON exf_sflux_max                =   2.2763820984464E-07
(PID.TID 0000.0001) %MON exf_sflux_min                =  -1.0241025632294E-06
(PID.TID 0000.0001) %MON exf_sflux_mean               =   4.2435410516204E-08
(PID.TID 0000.0001) %MON exf_sflux_sd                 =   1.0690499247981E-07
(PID.TID 0000.0001) %MON exf_sflux_del2               =   2.3859460703473E-11
(PID.TID 0000.0001) %MON exf_uwind_max                =   1.5827603368392E+01
(PID.TID 0000.0001) %MON exf_uwind_min                =  -1.0549100404348E+01
(PID.TID 0000.0001) %MON exf_uwind_mean               =   4.3711008618491E+00
(PID.TID 0000.0001) %MON exf_uwind_sd                 =   5.9182839024175E+00
(PID.TID 0000.0001) %MON exf_uwind_del2               =   1.6390353839443E-03
(PID.TID 0000.0001) %MON exf_vwind_max                =   1.4957037048602E+01
(PID.TID 0000.0001) %MON exf_vwind_min                =  -1.3144944680898E+01
(PID.TID 0000.0001) %MON exf_vwind_mean               =   1.7255135289659E+00
(PID.TID 0000.0001) %MON exf_vwind_sd                 =   7.3864533965460E+00
(PID.TID 0000.0001) %MON exf_vwind_del2               =   1.6886939958676E-03
(PID.TID 0000.0001) %MON exf_wspeed_max               =   1.8398348821581E+01
(PID.TID 0000.0001) %MON exf_wspeed_min               =   1.3168454382080E-02
(PID.TID 0000.0001) %MON exf_wspeed_mean              =   9.9435401264344E+00
(PID.TID 0000.0001) %MON exf_wspeed_sd                =   3.5771088278175E+00
(PID.TID 0000.0001) %MON exf_wspeed_del2              =   2.3532583825086E-03
(PID.TID 0000.0001) %MON exf_atemp_max                =   2.9779138587605E+02
(PID.TID 0000.0001) %MON exf_atemp_min                =   2.7429951057204E+02
(PID.TID 0000.0001) %MON exf_atemp_mean               =   2.8987786110363E+02
(PID.TID 0000.0001) %MON exf_atemp_sd                 =   4.3179462392438E+00
(PID.TID 0000.0001) %MON exf_atemp_del2               =   3.7039339857940E-03
(PID.TID 0000.0001) %MON exf_aqh_max                  =   1.4761197077831E-02
(PID.TID 0000.0001) %MON exf_aqh_min                  =   3.0783340453316E-03
(PID.TID 0000.0001) %MON exf_aqh_mean                 =   9.5866127540710E-03
(PID.TID 0000.0001) %MON exf_aqh_sd                   =   2.2667722681556E-03
(PID.TID 0000.0001) %MON exf_aqh_del2                 =   2.1307537385078E-06
(PID.TID 0000.0001) %MON exf_lwflux_max               =   1.5758281253246E+02
(PID.TID 0000.0001) %MON exf_lwflux_min               =   7.8108348109116E-01
(PID.TID 0000.0001) %MON exf_lwflux_mean              =   7.2766057021465E+01
(PID.TID 0000.0001) %MON exf_lwflux_sd                =   2.7856188723447E+01
(PID.TID 0000.0001) %MON exf_lwflux_del2              =   1.7287971536555E-02
(PID.TID 0000.0001) %MON exf_evap_max                 =   2.4977118783328E-07
(PID.TID 0000.0001) %MON exf_evap_min                 =  -4.2181876506703E-08
(PID.TID 0000.0001) %MON exf_evap_mean                =   7.9656959857787E-08
(PID.TID 0000.0001) %MON exf_evap_sd                  =   5.6039021731809E-08
(PID.TID 0000.0001) %MON exf_evap_del2                =   2.1563357991795E-11
(PID.TID 0000.0001) %MON exf_precip_max               =   1.0236550878962E-06
(PID.TID 0000.0001) %MON exf_precip_min               =   0.0000000000000E+00
(PID.TID 0000.0001) %MON exf_precip_mean              =   3.5633069769592E-08
(PID.TID 0000.0001) %MON exf_precip_sd                =   8.0508384742282E-08
(PID.TID 0000.0001) %MON exf_precip_del2              =   1.7731201452237E-11
(PID.TID 0000.0001) %MON exf_swflux_max               =   0.0000000000000E+00
(PID.TID 0000.0001) %MON exf_swflux_min               =  -1.8455356573614E+01
(PID.TID 0000.0001) %MON exf_swflux_mean              =  -6.1466967312888E-01
(PID.TID 0000.0001) %MON exf_swflux_sd                =   1.9490961204569E+00
(PID.TID 0000.0001) %MON exf_swflux_del2              =   4.2161316180279E-04
(PID.TID 0000.0001) %MON exf_swdown_max               =   2.0505951748460E+01
(PID.TID 0000.0001) %MON exf_swdown_min               =   0.0000000000000E+00
(PID.TID 0000.0001) %MON exf_swdown_mean              =   6.8296630347654E-01
(PID.TID 0000.0001) %MON exf_swdown_sd                =   2.1656623560632E+00
(PID.TID 0000.0001) %MON exf_swdown_del2              =   4.6845906866976E-04
(PID.TID 0000.0001) %MON exf_lwdown_max               =   4.0227143241195E+02
(PID.TID 0000.0001) %MON exf_lwdown_min               =   2.4884375302731E+02
(PID.TID 0000.0001) %MON exf_lwdown_mean              =   3.4205663237206E+02
(PID.TID 0000.0001) %MON exf_lwdown_sd                =   2.7517882972642E+01
(PID.TID 0000.0001) %MON exf_lwdown_del2              =   7.4680555503986E-02
(PID.TID 0000.0001) %MON exf_apressure_max            =   1.0298452448691E+05
(PID.TID 0000.0001) %MON exf_apressure_min            =   9.9655545919102E+04
(PID.TID 0000.0001) %MON exf_apressure_mean           =   1.0184933767694E+05
(PID.TID 0000.0001) %MON exf_apressure_sd             =   8.3847103349599E+02
(PID.TID 0000.0001) %MON exf_apressure_del2           =   2.2281438436026E+01
(PID.TID 0000.0001) %MON exf_runoff_max               =   4.4374798712073E-08
(PID.TID 0000.0001) %MON exf_runoff_min               =   0.0000000000000E+00
(PID.TID 0000.0001) %MON exf_runoff_mean              =   1.5884795719908E-09
(PID.TID 0000.0001) %MON exf_runoff_sd                =   5.3901959599983E-09
(PID.TID 0000.0001) %MON exf_runoff_del2              =   1.2741189756369E-12
(PID.TID 0000.0001) // =======================================================
(PID.TID 0000.0001) // End MONITOR EXF statistics
(PID.TID 0000.0001) // =======================================================
 cg2d: Sum(rhs),rhsMax =   5.26202007567547E+02  4.85376865999506E-02
(PID.TID 0000.0001)      cg2d_init_res =   1.60767853103218E+00
(PID.TID 0000.0001)      cg2d_iters(min,last) =      -1     316
(PID.TID 0000.0001)      cg2d_last_res =   6.85260681746440E-12
(PID.TID 0000.0001) // =======================================================
(PID.TID 0000.0001) // Begin MONITOR dynamic field statistics
(PID.TID 0000.0001) // =======================================================
(PID.TID 0000.0001) %MON time_tsnumber                =                     6
(PID.TID 0000.0001) %MON time_secondsf                =   1.4400000000000E+03
(PID.TID 0000.0001) %MON dynstat_eta_max              =   1.0337027327395E+00
(PID.TID 0000.0001) %MON dynstat_eta_min              =  -1.3333435032105E+00
(PID.TID 0000.0001) %MON dynstat_eta_mean             =  -1.7894604867620E-02
(PID.TID 0000.0001) %MON dynstat_eta_sd               =   1.8570866161895E-01
(PID.TID 0000.0001) %MON dynstat_eta_del2             =   2.3814062188803E-06
(PID.TID 0000.0001) %MON dynstat_uvel_max             =   1.2969516910681E+00
(PID.TID 0000.0001) %MON dynstat_uvel_min             =  -8.9191360997289E-01
(PID.TID 0000.0001) %MON dynstat_uvel_mean            =   4.1932251392226E-03
(PID.TID 0000.0001) %MON dynstat_uvel_sd              =   5.2437035077373E-02
(PID.TID 0000.0001) %MON dynstat_uvel_del2            =   4.7277991007128E-07
(PID.TID 0000.0001) %MON dynstat_vvel_max             =   2.1788666012208E+00
(PID.TID 0000.0001) %MON dynstat_vvel_min             =  -8.8787371119607E-01
(PID.TID 0000.0001) %MON dynstat_vvel_mean            =  -2.5440394494228E-03
(PID.TID 0000.0001) %MON dynstat_vvel_sd              =   4.8578150735764E-02
(PID.TID 0000.0001) %MON dynstat_vvel_del2            =   4.3293137324083E-07
(PID.TID 0000.0001) %MON dynstat_wvel_max             =   3.6717213843266E-02
(PID.TID 0000.0001) %MON dynstat_wvel_min             =  -3.0075231997991E-02
(PID.TID 0000.0001) %MON dynstat_wvel_mean            =  -9.1596774144784E-06
(PID.TID 0000.0001) %MON dynstat_wvel_sd              =   5.8711917405767E-04
(PID.TID 0000.0001) %MON dynstat_wvel_del2            =   7.6835990846985E-08
(PID.TID 0000.0001) %MON dynstat_theta_max            =   2.6138103896394E+01
(PID.TID 0000.0001) %MON dynstat_theta_min            =   1.4688641734773E+00
(PID.TID 0000.0001) %MON dynstat_theta_mean           =   5.5098373329556E+00
(PID.TID 0000.0001) %MON dynstat_theta_sd             =   4.7733562854350E+00
(PID.TID 0000.0001) %MON dynstat_theta_del2           =   4.0123580322646E-06
(PID.TID 0000.0001) %MON dynstat_salt_max             =   3.9173637507713E+01
(PID.TID 0000.0001) %MON dynstat_salt_min             =   3.3090428619524E+01
(PID.TID 0000.0001) %MON dynstat_salt_mean            =   3.5173367511376E+01
(PID.TID 0000.0001) %MON dynstat_salt_sd              =   3.7891290271331E-01
(PID.TID 0000.0001) %MON dynstat_salt_del2            =   5.0673216676791E-07
(PID.TID 0000.0001) %MON dynstat_sst_max              =   2.6128874165477E+01
(PID.TID 0000.0001) %MON dynstat_sst_min              =   4.0016324901681E+00
(PID.TID 0000.0001) %MON dynstat_sst_mean             =   1.9639499335555E+01
(PID.TID 0000.0001) %MON dynstat_sst_sd               =   3.6366241269284E+00
(PID.TID 0000.0001) %MON dynstat_sst_del2             =   1.9101198437958E-05
(PID.TID 0000.0001) %MON dynstat_sss_max              =   3.7335261880720E+01
(PID.TID 0000.0001) %MON dynstat_sss_min              =   3.3090428619524E+01
(PID.TID 0000.0001) %MON dynstat_sss_mean             =   3.5868333512495E+01
(PID.TID 0000.0001) %MON dynstat_sss_sd               =   4.8734549321479E-01
(PID.TID 0000.0001) %MON dynstat_sss_del2             =   4.9635425548070E-06
(PID.TID 0000.0001) %MON forcing_qnet_max             =   1.0812075613023E+03
(PID.TID 0000.0001) %MON forcing_qnet_min             =  -1.7291442240058E+02
(PID.TID 0000.0001) %MON forcing_qnet_mean            =   3.2818936135780E+02
(PID.TID 0000.0001) %MON forcing_qnet_sd              =   2.1781741486237E+02
(PID.TID 0000.0001) %MON forcing_qnet_del2            =   1.1853821708158E-03
(PID.TID 0000.0001) %MON forcing_qsw_max              =   0.0000000000000E+00
(PID.TID 0000.0001) %MON forcing_qsw_min              =  -1.8455356573614E+01
(PID.TID 0000.0001) %MON forcing_qsw_mean             =  -6.1466967312888E-01
(PID.TID 0000.0001) %MON forcing_qsw_sd               =   1.9490961204569E+00
(PID.TID 0000.0001) %MON forcing_qsw_del2             =   6.2768723328104E-06
(PID.TID 0000.0001) %MON forcing_empmr_max            =   2.2763820984464E-04
(PID.TID 0000.0001) %MON forcing_empmr_min            =  -1.0241025632294E-03
(PID.TID 0000.0001) %MON forcing_empmr_mean           =   4.2435410516204E-05
(PID.TID 0000.0001) %MON forcing_empmr_sd             =   1.0690499247981E-04
(PID.TID 0000.0001) %MON forcing_empmr_del2           =   8.7666185183478E-10
(PID.TID 0000.0001) %MON forcing_fu_max               =   5.8265328047648E-01
(PID.TID 0000.0001) %MON forcing_fu_min               =  -1.7974524617085E-01
(PID.TID 0000.0001) %MON forcing_fu_mean              =   9.8729725084872E-02
(PID.TID 0000.0001) %MON forcing_fu_sd                =   1.3654599082255E-01
(PID.TID 0000.0001) %MON forcing_fu_del2              =   1.6827670008329E-07
(PID.TID 0000.0001) %MON forcing_fv_max               =   4.1158216038174E-01
(PID.TID 0000.0001) %MON forcing_fv_min               =  -4.7442865502316E-01
(PID.TID 0000.0001) %MON forcing_fv_mean              =   2.7596964715508E-02
(PID.TID 0000.0001) %MON forcing_fv_sd                =   1.5406617318555E-01
(PID.TID 0000.0001) %MON forcing_fv_del2              =   3.0876467010187E-07
(PID.TID 0000.0001) %MON trAdv_CFL_u_max              =   7.8687048532013E-02
(PID.TID 0000.0001) %MON trAdv_CFL_v_max              =   1.3766821990164E-01
(PID.TID 0000.0001) %MON trAdv_CFL_w_max              =   4.7419774777127E-01
(PID.TID 0000.0001) %MON advcfl_uvel_max              =   7.8687047460618E-02
(PID.TID 0000.0001) %MON advcfl_vvel_max              =   1.3770827603764E-01
(PID.TID 0000.0001) %MON advcfl_wvel_max              =   4.7052179623816E-01
(PID.TID 0000.0001) %MON advcfl_W_hf_max              =   4.7419774777127E-01
(PID.TID 0000.0001) %MON pe_b_mean                    =  -3.8555867693947E-04
(PID.TID 0000.0001) %MON ke_max                       =   2.1624521503279E+00
(PID.TID 0000.0001) %MON ke_mean                      =   2.5477894968123E-03
(PID.TID 0000.0001) %MON ke_vol                       =   4.5818637279720E+16
(PID.TID 0000.0001) %MON vort_r_min                   =  -5.0535760325707E-04
(PID.TID 0000.0001) %MON vort_r_max                   =   5.4433802654691E-04
(PID.TID 0000.0001) %MON vort_a_mean                  =   8.2147627054294E-05
(PID.TID 0000.0001) %MON vort_a_sd                    =   1.0130247569431E-05
(PID.TID 0000.0001) %MON vort_p_mean                  =   8.4848848493830E-05
(PID.TID 0000.0001) %MON vort_p_sd                    =   3.4979931477266E-05
(PID.TID 0000.0001) %MON surfExpan_theta_mean         =  -1.3705806572720E-04
(PID.TID 0000.0001) %MON surfExpan_salt_mean          =  -6.0015257422110E-04
(PID.TID 0000.0001) // =======================================================
(PID.TID 0000.0001) // End MONITOR dynamic field statistics
(PID.TID 0000.0001) // =======================================================
(PID.TID 0000.0001) // =======================================================
(PID.TID 0000.0001) // Begin OBCS MONITOR field statistics
(PID.TID 0000.0001) // =======================================================
(PID.TID 0000.0001) %MON obc_N_vVel_max               =   6.9533062238007E-01
(PID.TID 0000.0001) %MON obc_N_vVel_min               =  -3.2259805496536E-01
(PID.TID 0000.0001) %MON obc_N_vVel_mean              =   1.3537174950139E-02
(PID.TID 0000.0001) %MON obc_N_vVel_sd                =   6.4669900488856E-02
(PID.TID 0000.0001) %MON obc_N_vVel_Int               =   1.9378580279720E+08
(PID.TID 0000.0001) %MON obc_S_vVel_max               =   2.1788666012208E+00
(PID.TID 0000.0001) %MON obc_S_vVel_min               =  -2.6256909347755E-01
(PID.TID 0000.0001) %MON obc_S_vVel_mean              =  -7.1067361303625E-05
(PID.TID 0000.0001) %MON obc_S_vVel_sd                =   3.5965892379268E-02
(PID.TID 0000.0001) %MON obc_S_vVel_Int               =  -2.1634965501856E+06
(PID.TID 0000.0001) %MON obc_N_theta_max              =   1.6390332432041E+01
(PID.TID 0000.0001) %MON obc_N_theta_min              =   1.8895910213779E+00
(PID.TID 0000.0001) %MON obc_N_theta_mean             =   5.1589361969886E+00
(PID.TID 0000.0001) %MON obc_N_theta_sd               =   3.4826781859977E+00
(PID.TID 0000.0001) %MON obc_S_theta_max              =   2.5544324816130E+01
(PID.TID 0000.0001) %MON obc_S_theta_min              =   1.4632980186102E+00
(PID.TID 0000.0001) %MON obc_S_theta_mean             =   5.4595529500639E+00
(PID.TID 0000.0001) %MON obc_S_theta_sd               =   5.3559138080854E+00
(PID.TID 0000.0001) %MON obc_N_salt_max               =   3.5910865197779E+01
(PID.TID 0000.0001) %MON obc_N_salt_min               =   3.3295047085845E+01
(PID.TID 0000.0001) %MON obc_N_salt_mean              =   3.5114562540430E+01
(PID.TID 0000.0001) %MON obc_N_salt_sd                =   3.0984861318096E-01
(PID.TID 0000.0001) %MON obc_S_salt_max               =   3.7318305324317E+01
(PID.TID 0000.0001) %MON obc_S_salt_min               =   3.4844694627139E+01
(PID.TID 0000.0001) %MON obc_S_salt_mean              =   3.5168372507334E+01
(PID.TID 0000.0001) %MON obc_S_salt_sd                =   4.5716900135870E-01
(PID.TID 0000.0001) // =======================================================
(PID.TID 0000.0001) // End OBCS MONITOR field statistics
(PID.TID 0000.0001) // =======================================================
(PID.TID 0000.0001) // =======================================================
(PID.TID 0000.0001) // Begin MONITOR EXF statistics
(PID.TID 0000.0001) // =======================================================
(PID.TID 0000.0001) %MON exf_tsnumber                 =                     6
(PID.TID 0000.0001) %MON exf_time_sec                 =   1.4400000000000E+03
(PID.TID 0000.0001) %MON exf_ustress_max              =   5.8026509715470E-01
(PID.TID 0000.0001) %MON exf_ustress_min              =  -1.7911709993161E-01
(PID.TID 0000.0001) %MON exf_ustress_mean             =   9.8432780079344E-02
(PID.TID 0000.0001) %MON exf_ustress_sd               =   1.3617688438297E-01
(PID.TID 0000.0001) %MON exf_ustress_del2             =   1.9274287922193E-07
(PID.TID 0000.0001) %MON exf_vstress_max              =   4.1097006122632E-01
(PID.TID 0000.0001) %MON exf_vstress_min              =  -4.7393298591234E-01
(PID.TID 0000.0001) %MON exf_vstress_mean             =   2.7773269163019E-02
(PID.TID 0000.0001) %MON exf_vstress_sd               =   1.5373270931446E-01
(PID.TID 0000.0001) %MON exf_vstress_del2             =   3.3318121913361E-07
(PID.TID 0000.0001) %MON exf_hflux_max                =   1.0635716368576E+03
(PID.TID 0000.0001) %MON exf_hflux_min                =  -1.3294737523207E+02
(PID.TID 0000.0001) %MON exf_hflux_mean               =   3.2349720664317E+02
(PID.TID 0000.0001) %MON exf_hflux_sd                 =   2.1169448023021E+02
(PID.TID 0000.0001) %MON exf_hflux_del2               =   8.6528416292413E-02
(PID.TID 0000.0001) %MON exf_sflux_max                =   2.2716857600058E-07
(PID.TID 0000.0001) %MON exf_sflux_min                =  -1.0373228262073E-06
(PID.TID 0000.0001) %MON exf_sflux_mean               =   4.2246625637932E-08
(PID.TID 0000.0001) %MON exf_sflux_sd                 =   1.0738236089968E-07
(PID.TID 0000.0001) %MON exf_sflux_del2               =   2.3920975518387E-11
(PID.TID 0000.0001) %MON exf_uwind_max                =   1.5771082621387E+01
(PID.TID 0000.0001) %MON exf_uwind_min                =  -1.0529070110556E+01
(PID.TID 0000.0001) %MON exf_uwind_mean               =   4.3696808084253E+00
(PID.TID 0000.0001) %MON exf_uwind_sd                 =   5.9139981068456E+00
(PID.TID 0000.0001) %MON exf_uwind_del2               =   1.6383002896309E-03
(PID.TID 0000.0001) %MON exf_vwind_max                =   1.4931535015730E+01
(PID.TID 0000.0001) %MON exf_vwind_min                =  -1.3128566073130E+01
(PID.TID 0000.0001) %MON exf_vwind_mean               =   1.7313690521236E+00
(PID.TID 0000.0001) %MON exf_vwind_sd                 =   7.3789352129663E+00
(PID.TID 0000.0001) %MON exf_vwind_del2               =   1.6873018535588E-03
(PID.TID 0000.0001) %MON exf_wspeed_max               =   1.8380141705151E+01
(PID.TID 0000.0001) %MON exf_wspeed_min               =   3.6884053638583E-02
(PID.TID 0000.0001) %MON exf_wspeed_mean              =   9.9372070473722E+00
(PID.TID 0000.0001) %MON exf_wspeed_sd                =   3.5731951730568E+00
(PID.TID 0000.0001) %MON exf_wspeed_del2              =   2.3517484376789E-03
(PID.TID 0000.0001) %MON exf_atemp_max                =   2.9779093184821E+02
(PID.TID 0000.0001) %MON exf_atemp_min                =   2.7431063773668E+02
(PID.TID 0000.0001) %MON exf_atemp_mean               =   2.8987793461675E+02
(PID.TID 0000.0001) %MON exf_atemp_sd                 =   4.3145498242768E+00
(PID.TID 0000.0001) %MON exf_atemp_del2               =   3.7039107637416E-03
(PID.TID 0000.0001) %MON exf_aqh_max                  =   1.4782801736234E-02
(PID.TID 0000.0001) %MON exf_aqh_min                  =   3.0858811363135E-03
(PID.TID 0000.0001) %MON exf_aqh_mean                 =   9.5862295715457E-03
(PID.TID 0000.0001) %MON exf_aqh_sd                   =   2.2644383926775E-03
(PID.TID 0000.0001) %MON exf_aqh_del2                 =   2.1306189958737E-06
(PID.TID 0000.0001) %MON exf_lwflux_max               =   1.5737087626885E+02
(PID.TID 0000.0001) %MON exf_lwflux_min               =   4.0046837205725E-01
(PID.TID 0000.0001) %MON exf_lwflux_mean              =   7.2758449758994E+01
(PID.TID 0000.0001) %MON exf_lwflux_sd                =   2.7875804831949E+01
(PID.TID 0000.0001) %MON exf_lwflux_del2              =   1.7286633811726E-02
(PID.TID 0000.0001) %MON exf_evap_max                 =   2.4942081484639E-07
(PID.TID 0000.0001) %MON exf_evap_min                 =  -4.2031976765637E-08
(PID.TID 0000.0001) %MON exf_evap_mean                =   7.9563033159728E-08
(PID.TID 0000.0001) %MON exf_evap_sd                  =   5.5937181080977E-08
(PID.TID 0000.0001) %MON exf_evap_del2                =   2.1531584599735E-11
(PID.TID 0000.0001) %MON exf_precip_max               =   1.0367653759881E-06
(PID.TID 0000.0001) %MON exf_precip_min               =   0.0000000000000E+00
(PID.TID 0000.0001) %MON exf_precip_mean              =   3.5727927949805E-08
(PID.TID 0000.0001) %MON exf_precip_sd                =   8.1074376024078E-08
(PID.TID 0000.0001) %MON exf_precip_del2              =   1.7837210458216E-11
(PID.TID 0000.0001) %MON exf_swflux_max               =   0.0000000000000E+00
(PID.TID 0000.0001) %MON exf_swflux_min               =  -1.7400764769408E+01
(PID.TID 0000.0001) %MON exf_swflux_mean              =  -5.7954569180723E-01
(PID.TID 0000.0001) %MON exf_swflux_sd                =   1.8377191992879E+00
(PID.TID 0000.0001) %MON exf_swflux_del2              =   3.9752098112834E-04
(PID.TID 0000.0001) %MON exf_swdown_max               =   1.9334183077120E+01
(PID.TID 0000.0001) %MON exf_swdown_min               =   0.0000000000000E+00
(PID.TID 0000.0001) %MON exf_swdown_mean              =   6.4393965756359E-01
(PID.TID 0000.0001) %MON exf_swdown_sd                =   2.0419102214310E+00
(PID.TID 0000.0001) %MON exf_swdown_del2              =   4.4168997903149E-04
(PID.TID 0000.0001) %MON exf_lwdown_max               =   4.0237342573156E+02
(PID.TID 0000.0001) %MON exf_lwdown_min               =   2.4889028776507E+02
(PID.TID 0000.0001) %MON exf_lwdown_mean              =   3.4205761045924E+02
(PID.TID 0000.0001) %MON exf_lwdown_sd                =   2.7521339986928E+01
(PID.TID 0000.0001) %MON exf_lwdown_del2              =   7.4681217025701E-02
(PID.TID 0000.0001) %MON exf_apressure_max            =   1.0298199924850E+05
(PID.TID 0000.0001) %MON exf_apressure_min            =   9.9654384385710E+04
(PID.TID 0000.0001) %MON exf_apressure_mean           =   1.0184770396919E+05
(PID.TID 0000.0001) %MON exf_apressure_sd             =   8.3790133706339E+02
(PID.TID 0000.0001) %MON exf_apressure_del2           =   2.2281090407600E+01
(PID.TID 0000.0001) %MON exf_runoff_max               =   4.4374798712073E-08
(PID.TID 0000.0001) %MON exf_runoff_min               =   0.0000000000000E+00
(PID.TID 0000.0001) %MON exf_runoff_mean              =   1.5884795719908E-09
(PID.TID 0000.0001) %MON exf_runoff_sd                =   5.3901959599983E-09
(PID.TID 0000.0001) %MON exf_runoff_del2              =   1.2741189756369E-12
(PID.TID 0000.0001) // =======================================================
(PID.TID 0000.0001) // End MONITOR EXF statistics
(PID.TID 0000.0001) // =======================================================
 cg2d: Sum(rhs),rhsMax =   6.62121604486753E+02  5.76912313211256E-02
(PID.TID 0000.0001)      cg2d_init_res =   1.47748082687930E+00
(PID.TID 0000.0001)      cg2d_iters(min,last) =      -1     316
(PID.TID 0000.0001)      cg2d_last_res =   6.66858988789223E-12
(PID.TID 0000.0001) // =======================================================
(PID.TID 0000.0001) // Begin MONITOR dynamic field statistics
(PID.TID 0000.0001) // =======================================================
(PID.TID 0000.0001) %MON time_tsnumber                =                     7
(PID.TID 0000.0001) %MON time_secondsf                =   1.6800000000000E+03
(PID.TID 0000.0001) %MON dynstat_eta_max              =   1.0090767176621E+00
(PID.TID 0000.0001) %MON dynstat_eta_min              =  -1.2343409776209E+00
(PID.TID 0000.0001) %MON dynstat_eta_mean             =  -2.2516836340812E-02
(PID.TID 0000.0001) %MON dynstat_eta_sd               =   2.0029856577046E-01
(PID.TID 0000.0001) %MON dynstat_eta_del2             =   2.4045269249395E-06
(PID.TID 0000.0001) %MON dynstat_uvel_max             =   1.2973180169027E+00
(PID.TID 0000.0001) %MON dynstat_uvel_min             =  -7.8921399509992E-01
(PID.TID 0000.0001) %MON dynstat_uvel_mean            =   4.1406538301384E-03
(PID.TID 0000.0001) %MON dynstat_uvel_sd              =   5.2424625231483E-02
(PID.TID 0000.0001) %MON dynstat_uvel_del2            =   4.8027645930532E-07
(PID.TID 0000.0001) %MON dynstat_vvel_max             =   2.2418623661086E+00
(PID.TID 0000.0001) %MON dynstat_vvel_min             =  -8.8907934492083E-01
(PID.TID 0000.0001) %MON dynstat_vvel_mean            =  -2.8586469130828E-03
(PID.TID 0000.0001) %MON dynstat_vvel_sd              =   4.8738116198930E-02
(PID.TID 0000.0001) %MON dynstat_vvel_del2            =   4.4044578507149E-07
(PID.TID 0000.0001) %MON dynstat_wvel_max             =   3.6313577704812E-02
(PID.TID 0000.0001) %MON dynstat_wvel_min             =  -2.9059243577123E-02
(PID.TID 0000.0001) %MON dynstat_wvel_mean            =  -1.0345911775194E-05
(PID.TID 0000.0001) %MON dynstat_wvel_sd              =   5.8925007320963E-04
(PID.TID 0000.0001) %MON dynstat_wvel_del2            =   7.4896157172268E-08
(PID.TID 0000.0001) %MON dynstat_theta_max            =   2.6137507532732E+01
(PID.TID 0000.0001) %MON dynstat_theta_min            =   1.4688642980877E+00
(PID.TID 0000.0001) %MON dynstat_theta_mean           =   5.5098362041035E+00
(PID.TID 0000.0001) %MON dynstat_theta_sd             =   4.7733352250257E+00
(PID.TID 0000.0001) %MON dynstat_theta_del2           =   4.0161221343331E-06
(PID.TID 0000.0001) %MON dynstat_salt_max             =   3.9170588281586E+01
(PID.TID 0000.0001) %MON dynstat_salt_min             =   3.3090573321225E+01
(PID.TID 0000.0001) %MON dynstat_salt_mean            =   3.5173366976523E+01
(PID.TID 0000.0001) %MON dynstat_salt_sd              =   3.7891345370542E-01
(PID.TID 0000.0001) %MON dynstat_salt_del2            =   5.1058283016565E-07
(PID.TID 0000.0001) %MON dynstat_sst_max              =   2.6127463820868E+01
(PID.TID 0000.0001) %MON dynstat_sst_min              =   3.9863951365114E+00
(PID.TID 0000.0001) %MON dynstat_sst_mean             =   1.9638409418832E+01
(PID.TID 0000.0001) %MON dynstat_sst_sd               =   3.6364464326792E+00
(PID.TID 0000.0001) %MON dynstat_sst_del2             =   1.9118020463571E-05
(PID.TID 0000.0001) %MON dynstat_sss_max              =   3.7335295026711E+01
(PID.TID 0000.0001) %MON dynstat_sss_min              =   3.3090573321225E+01
(PID.TID 0000.0001) %MON dynstat_sss_mean             =   3.5868378292596E+01
(PID.TID 0000.0001) %MON dynstat_sss_sd               =   4.8736404234856E-01
(PID.TID 0000.0001) %MON dynstat_sss_del2             =   4.9543902606474E-06
(PID.TID 0000.0001) %MON forcing_qnet_max             =   1.0796264867958E+03
(PID.TID 0000.0001) %MON forcing_qnet_min             =  -1.7476396985921E+02
(PID.TID 0000.0001) %MON forcing_qnet_mean            =   3.2788061861402E+02
(PID.TID 0000.0001) %MON forcing_qnet_sd              =   2.1748421563497E+02
(PID.TID 0000.0001) %MON forcing_qnet_del2            =   1.1824344650001E-03
(PID.TID 0000.0001) %MON forcing_qsw_max              =   0.0000000000000E+00
(PID.TID 0000.0001) %MON forcing_qsw_min              =  -1.7400764769408E+01
(PID.TID 0000.0001) %MON forcing_qsw_mean             =  -5.7954569180723E-01
(PID.TID 0000.0001) %MON forcing_qsw_sd               =   1.8377191992879E+00
(PID.TID 0000.0001) %MON forcing_qsw_del2             =   5.9181939137927E-06
(PID.TID 0000.0001) %MON forcing_empmr_max            =   2.2716857600058E-04
(PID.TID 0000.0001) %MON forcing_empmr_min            =  -1.0373228262073E-03
(PID.TID 0000.0001) %MON forcing_empmr_mean           =   4.2246625637932E-05
(PID.TID 0000.0001) %MON forcing_empmr_sd             =   1.0738236089968E-04
(PID.TID 0000.0001) %MON forcing_empmr_del2           =   8.8814416447282E-10
(PID.TID 0000.0001) %MON forcing_fu_max               =   5.8024063473395E-01
(PID.TID 0000.0001) %MON forcing_fu_min               =  -1.7911566410465E-01
(PID.TID 0000.0001) %MON forcing_fu_mean              =   9.8539761521336E-02
(PID.TID 0000.0001) %MON forcing_fu_sd                =   1.3620585056151E-01
(PID.TID 0000.0001) %MON forcing_fu_del2              =   1.6809775874404E-07
(PID.TID 0000.0001) %MON forcing_fv_max               =   4.1084961505017E-01
(PID.TID 0000.0001) %MON forcing_fv_min               =  -4.7392201450989E-01
(PID.TID 0000.0001) %MON forcing_fv_mean              =   2.7707133568418E-02
(PID.TID 0000.0001) %MON forcing_fv_sd                =   1.5374323956322E-01
(PID.TID 0000.0001) %MON forcing_fv_del2              =   3.1000347808854E-07
(PID.TID 0000.0001) %MON trAdv_CFL_u_max              =   7.8709273799865E-02
(PID.TID 0000.0001) %MON trAdv_CFL_v_max              =   1.4164850708792E-01
(PID.TID 0000.0001) %MON trAdv_CFL_w_max              =   5.0834812257280E-01
(PID.TID 0000.0001) %MON advcfl_uvel_max              =   7.8709272728167E-02
(PID.TID 0000.0001) %MON advcfl_vvel_max              =   1.4168972133379E-01
(PID.TID 0000.0001) %MON advcfl_wvel_max              =   5.0440743945208E-01
(PID.TID 0000.0001) %MON advcfl_W_hf_max              =   5.0834812257280E-01
(PID.TID 0000.0001) %MON pe_b_mean                    =  -4.9015994579874E-04
(PID.TID 0000.0001) %MON ke_max                       =   2.2872698677652E+00
(PID.TID 0000.0001) %MON ke_mean                      =   2.5555100099203E-03
(PID.TID 0000.0001) %MON ke_vol                       =   4.5818637279720E+16
(PID.TID 0000.0001) %MON vort_r_min                   =  -5.0953790932463E-04
(PID.TID 0000.0001) %MON vort_r_max                   =   5.6283083951950E-04
(PID.TID 0000.0001) %MON vort_a_mean                  =   8.2147626272995E-05
(PID.TID 0000.0001) %MON vort_a_sd                    =   1.0133466382910E-05
(PID.TID 0000.0001) %MON vort_p_mean                  =   8.4848847686840E-05
(PID.TID 0000.0001) %MON vort_p_sd                    =   3.4980756181653E-05
(PID.TID 0000.0001) %MON surfExpan_theta_mean         =  -1.8040666433145E-04
(PID.TID 0000.0001) %MON surfExpan_salt_mean          =  -6.7089726194765E-04
(PID.TID 0000.0001) // =======================================================
(PID.TID 0000.0001) // End MONITOR dynamic field statistics
(PID.TID 0000.0001) // =======================================================
(PID.TID 0000.0001) // =======================================================
(PID.TID 0000.0001) // Begin OBCS MONITOR field statistics
(PID.TID 0000.0001) // =======================================================
(PID.TID 0000.0001) %MON obc_N_vVel_max               =   6.9521236116019E-01
(PID.TID 0000.0001) %MON obc_N_vVel_min               =  -3.2280691227700E-01
(PID.TID 0000.0001) %MON obc_N_vVel_mean              =   1.3558519772720E-02
(PID.TID 0000.0001) %MON obc_N_vVel_sd                =   6.4657344949975E-02
(PID.TID 0000.0001) %MON obc_N_vVel_Int               =   1.9409135573529E+08
(PID.TID 0000.0001) %MON obc_S_vVel_max               =   2.2418623661086E+00
(PID.TID 0000.0001) %MON obc_S_vVel_min               =  -2.6267591393568E-01
(PID.TID 0000.0001) %MON obc_S_vVel_mean              =  -7.7413489822454E-04
(PID.TID 0000.0001) %MON obc_S_vVel_sd                =   3.6015630243837E-02
(PID.TID 0000.0001) %MON obc_S_vVel_Int               =  -2.3566911039958E+07
(PID.TID 0000.0001) %MON obc_N_theta_max              =   1.6390244329854E+01
(PID.TID 0000.0001) %MON obc_N_theta_min              =   1.8895910704432E+00
(PID.TID 0000.0001) %MON obc_N_theta_mean             =   5.1589288128385E+00
(PID.TID 0000.0001) %MON obc_N_theta_sd               =   3.4826688944174E+00
(PID.TID 0000.0001) %MON obc_S_theta_max              =   2.5544222067351E+01
(PID.TID 0000.0001) %MON obc_S_theta_min              =   1.4632984148975E+00
(PID.TID 0000.0001) %MON obc_S_theta_mean             =   5.4595521450393E+00
(PID.TID 0000.0001) %MON obc_S_theta_sd               =   5.3559099369382E+00
(PID.TID 0000.0001) %MON obc_N_salt_max               =   3.5910864789416E+01
(PID.TID 0000.0001) %MON obc_N_salt_min               =   3.3295052588478E+01
(PID.TID 0000.0001) %MON obc_N_salt_mean              =   3.5114562244443E+01
(PID.TID 0000.0001) %MON obc_N_salt_sd                =   3.0984849390781E-01
(PID.TID 0000.0001) %MON obc_S_salt_max               =   3.7318298439933E+01
(PID.TID 0000.0001) %MON obc_S_salt_min               =   3.4844694679359E+01
(PID.TID 0000.0001) %MON obc_S_salt_mean              =   3.5168372435418E+01
(PID.TID 0000.0001) %MON obc_S_salt_sd                =   4.5716865028953E-01
(PID.TID 0000.0001) // =======================================================
(PID.TID 0000.0001) // End OBCS MONITOR field statistics
(PID.TID 0000.0001) // =======================================================
(PID.TID 0000.0001) // =======================================================
(PID.TID 0000.0001) // Begin MONITOR EXF statistics
(PID.TID 0000.0001) // =======================================================
(PID.TID 0000.0001) %MON exf_tsnumber                 =                     7
(PID.TID 0000.0001) %MON exf_time_sec                 =   1.6800000000000E+03
(PID.TID 0000.0001) %MON exf_ustress_max              =   5.7798089651654E-01
(PID.TID 0000.0001) %MON exf_ustress_min              =  -1.7850902497901E-01
(PID.TID 0000.0001) %MON exf_ustress_mean             =   9.8255027475933E-02
(PID.TID 0000.0001) %MON exf_ustress_sd               =   1.3586438748912E-01
(PID.TID 0000.0001) %MON exf_ustress_del2             =   1.9309100392314E-07
(PID.TID 0000.0001) %MON exf_vstress_max              =   4.1093108799324E-01
(PID.TID 0000.0001) %MON exf_vstress_min              =  -4.7356211635067E-01
(PID.TID 0000.0001) %MON exf_vstress_mean             =   2.7888103111806E-02
(PID.TID 0000.0001) %MON exf_vstress_sd               =   1.5344055176232E-01
(PID.TID 0000.0001) %MON exf_vstress_del2             =   3.3529115052438E-07
(PID.TID 0000.0001) %MON exf_hflux_max                =   1.0621189464051E+03
(PID.TID 0000.0001) %MON exf_hflux_min                =  -1.3216748283548E+02
(PID.TID 0000.0001) %MON exf_hflux_mean               =   3.2322581926635E+02
(PID.TID 0000.0001) %MON exf_hflux_sd                 =   2.1137384834577E+02
(PID.TID 0000.0001) %MON exf_hflux_del2               =   8.6426524583774E-02
(PID.TID 0000.0001) %MON exf_sflux_max                =   2.2672186429178E-07
(PID.TID 0000.0001) %MON exf_sflux_min                =  -1.0505646135958E-06
(PID.TID 0000.0001) %MON exf_sflux_mean               =   4.2064321901801E-08
(PID.TID 0000.0001) %MON exf_sflux_sd                 =   1.0788884706227E-07
(PID.TID 0000.0001) %MON exf_sflux_del2               =   2.3988841384441E-11
(PID.TID 0000.0001) %MON exf_uwind_max                =   1.5716463124737E+01
(PID.TID 0000.0001) %MON exf_uwind_min                =  -1.0509793225080E+01
(PID.TID 0000.0001) %MON exf_uwind_mean               =   4.3683622486284E+00
(PID.TID 0000.0001) %MON exf_uwind_sd                 =   5.9100861069622E+00
(PID.TID 0000.0001) %MON exf_uwind_del2               =   1.6376515333972E-03
(PID.TID 0000.0001) %MON exf_vwind_max                =   1.4905950270309E+01
(PID.TID 0000.0001) %MON exf_vwind_min                =  -1.3113467476386E+01
(PID.TID 0000.0001) %MON exf_vwind_mean               =   1.7372583526507E+00
(PID.TID 0000.0001) %MON exf_vwind_sd                 =   7.3719220848450E+00
(PID.TID 0000.0001) %MON exf_vwind_del2               =   1.6860331686500E-03
(PID.TID 0000.0001) %MON exf_wspeed_max               =   1.8363341493238E+01
(PID.TID 0000.0001) %MON exf_wspeed_min               =   4.6880403092146E-02
(PID.TID 0000.0001) %MON exf_wspeed_mean              =   9.9313936982338E+00
(PID.TID 0000.0001) %MON exf_wspeed_sd                =   3.5696537012027E+00
(PID.TID 0000.0001) %MON exf_wspeed_del2              =   2.3503872487157E-03
(PID.TID 0000.0001) %MON exf_atemp_max                =   2.9779047782038E+02
(PID.TID 0000.0001) %MON exf_atemp_min                =   2.7432176490132E+02
(PID.TID 0000.0001) %MON exf_atemp_mean               =   2.8987800812987E+02
(PID.TID 0000.0001) %MON exf_atemp_sd                 =   4.3111871116855E+00
(PID.TID 0000.0001) %MON exf_atemp_del2               =   3.7038897227433E-03
(PID.TID 0000.0001) %MON exf_aqh_max                  =   1.4804406394637E-02
(PID.TID 0000.0001) %MON exf_aqh_min                  =   3.0934282272954E-03
(PID.TID 0000.0001) %MON exf_aqh_mean                 =   9.5858463890204E-03
(PID.TID 0000.0001) %MON exf_aqh_sd                   =   2.2621519495468E-03
(PID.TID 0000.0001) %MON exf_aqh_del2                 =   2.1304869025644E-06
(PID.TID 0000.0001) %MON exf_lwflux_max               =   1.5715932917521E+02
(PID.TID 0000.0001) %MON exf_lwflux_min               =  -2.6157974789114E-01
(PID.TID 0000.0001) %MON exf_lwflux_mean              =   7.2751443327682E+01
(PID.TID 0000.0001) %MON exf_lwflux_sd                =   2.7898580384745E+01
(PID.TID 0000.0001) %MON exf_lwflux_del2              =   1.7285690316683E-02
(PID.TID 0000.0001) %MON exf_evap_max                 =   2.4909074258212E-07
(PID.TID 0000.0001) %MON exf_evap_min                 =  -4.1889042711429E-08
(PID.TID 0000.0001) %MON exf_evap_mean                =   7.9475587603810E-08
(PID.TID 0000.0001) %MON exf_evap_sd                  =   5.5841134879488E-08
(PID.TID 0000.0001) %MON exf_evap_del2                =   2.1501906062072E-11
(PID.TID 0000.0001) %MON exf_precip_max               =   1.0498756640800E-06
(PID.TID 0000.0001) %MON exf_precip_min               =   0.0000000000000E+00
(PID.TID 0000.0001) %MON exf_precip_mean              =   3.5822786130018E-08
(PID.TID 0000.0001) %MON exf_precip_sd                =   8.1672012886129E-08
(PID.TID 0000.0001) %MON exf_precip_del2              =   1.7949294168501E-11
(PID.TID 0000.0001) %MON exf_swflux_max               =   0.0000000000000E+00
(PID.TID 0000.0001) %MON exf_swflux_min               =  -1.6346172965201E+01
(PID.TID 0000.0001) %MON exf_swflux_mean              =  -5.4442171048558E-01
(PID.TID 0000.0001) %MON exf_swflux_sd                =   1.7263422781189E+00
(PID.TID 0000.0001) %MON exf_swflux_del2              =   3.7342880045390E-04
(PID.TID 0000.0001) %MON exf_swdown_max               =   1.8162414405779E+01
(PID.TID 0000.0001) %MON exf_swdown_min               =   0.0000000000000E+00
(PID.TID 0000.0001) %MON exf_swdown_mean              =   6.0491301165065E-01
(PID.TID 0000.0001) %MON exf_swdown_sd                =   1.9181580867988E+00
(PID.TID 0000.0001) %MON exf_swdown_del2              =   4.1492088939322E-04
(PID.TID 0000.0001) %MON exf_lwdown_max               =   4.0247541905117E+02
(PID.TID 0000.0001) %MON exf_lwdown_min               =   2.4892532480980E+02
(PID.TID 0000.0001) %MON exf_lwdown_mean              =   3.4205858854642E+02
(PID.TID 0000.0001) %MON exf_lwdown_sd                =   2.7527986588131E+01
(PID.TID 0000.0001) %MON exf_lwdown_del2              =   7.4681941102670E-02
(PID.TID 0000.0001) %MON exf_apressure_max            =   1.0297947401009E+05
(PID.TID 0000.0001) %MON exf_apressure_min            =   9.9653222852318E+04
(PID.TID 0000.0001) %MON exf_apressure_mean           =   1.0184607026144E+05
(PID.TID 0000.0001) %MON exf_apressure_sd             =   8.3733671454949E+02
(PID.TID 0000.0001) %MON exf_apressure_del2           =   2.2280742389507E+01
(PID.TID 0000.0001) %MON exf_runoff_max               =   4.4374798712073E-08
(PID.TID 0000.0001) %MON exf_runoff_min               =   0.0000000000000E+00
(PID.TID 0000.0001) %MON exf_runoff_mean              =   1.5884795719908E-09
(PID.TID 0000.0001) %MON exf_runoff_sd                =   5.3901959599983E-09
(PID.TID 0000.0001) %MON exf_runoff_del2              =   1.2741189756369E-12
(PID.TID 0000.0001) // =======================================================
(PID.TID 0000.0001) // End MONITOR EXF statistics
(PID.TID 0000.0001) // =======================================================
 cg2d: Sum(rhs),rhsMax =   8.11432175923067E+02  6.53591866257875E-02
(PID.TID 0000.0001)      cg2d_init_res =   1.50162298780397E+00
(PID.TID 0000.0001)      cg2d_iters(min,last) =      -1     316
(PID.TID 0000.0001)      cg2d_last_res =   6.55426398614127E-12
(PID.TID 0000.0001) // =======================================================
(PID.TID 0000.0001) // Begin MONITOR dynamic field statistics
(PID.TID 0000.0001) // =======================================================
(PID.TID 0000.0001) %MON time_tsnumber                =                     8
(PID.TID 0000.0001) %MON time_secondsf                =   1.9200000000000E+03
(PID.TID 0000.0001) %MON dynstat_eta_max              =   9.8554888466011E-01
(PID.TID 0000.0001) %MON dynstat_eta_min              =  -1.2452255799686E+00
(PID.TID 0000.0001) %MON dynstat_eta_mean             =  -2.7594456038165E-02
(PID.TID 0000.0001) %MON dynstat_eta_sd               =   2.1358629138499E-01
(PID.TID 0000.0001) %MON dynstat_eta_del2             =   2.4536788534260E-06
(PID.TID 0000.0001) %MON dynstat_uvel_max             =   1.2961864901942E+00
(PID.TID 0000.0001) %MON dynstat_uvel_min             =  -7.7661625486817E-01
(PID.TID 0000.0001) %MON dynstat_uvel_mean            =   4.0729724233198E-03
(PID.TID 0000.0001) %MON dynstat_uvel_sd              =   5.2404889264851E-02
(PID.TID 0000.0001) %MON dynstat_uvel_del2            =   4.8957338909835E-07
(PID.TID 0000.0001) %MON dynstat_vvel_max             =   2.3044155098749E+00
(PID.TID 0000.0001) %MON dynstat_vvel_min             =  -8.9005066195134E-01
(PID.TID 0000.0001) %MON dynstat_vvel_mean            =  -3.1584447808874E-03
(PID.TID 0000.0001) %MON dynstat_vvel_sd              =   4.8898954446375E-02
(PID.TID 0000.0001) %MON dynstat_vvel_del2            =   4.4936560042125E-07
(PID.TID 0000.0001) %MON dynstat_wvel_max             =   3.5909569797339E-02
(PID.TID 0000.0001) %MON dynstat_wvel_min             =  -2.8197527125257E-02
(PID.TID 0000.0001) %MON dynstat_wvel_mean            =  -1.1519436772765E-05
(PID.TID 0000.0001) %MON dynstat_wvel_sd              =   5.9312041753161E-04
(PID.TID 0000.0001) %MON dynstat_wvel_del2            =   7.4872257932290E-08
(PID.TID 0000.0001) %MON dynstat_theta_max            =   2.6136705773265E+01
(PID.TID 0000.0001) %MON dynstat_theta_min            =   1.4688644308424E+00
(PID.TID 0000.0001) %MON dynstat_theta_mean           =   5.5098370870800E+00
(PID.TID 0000.0001) %MON dynstat_theta_sd             =   4.7733171361927E+00
(PID.TID 0000.0001) %MON dynstat_theta_del2           =   4.0194413587538E-06
(PID.TID 0000.0001) %MON dynstat_salt_max             =   3.9167288440701E+01
(PID.TID 0000.0001) %MON dynstat_salt_min             =   3.3090717313423E+01
(PID.TID 0000.0001) %MON dynstat_salt_mean            =   3.5173366623460E+01
(PID.TID 0000.0001) %MON dynstat_salt_sd              =   3.7891424957921E-01
(PID.TID 0000.0001) %MON dynstat_salt_del2            =   5.1440621555852E-07
(PID.TID 0000.0001) %MON dynstat_sst_max              =   2.6125845333641E+01
(PID.TID 0000.0001) %MON dynstat_sst_min              =   3.9709819698807E+00
(PID.TID 0000.0001) %MON dynstat_sst_mean             =   1.9637405079213E+01
(PID.TID 0000.0001) %MON dynstat_sst_sd               =   3.6362876105465E+00
(PID.TID 0000.0001) %MON dynstat_sst_del2             =   1.9136857513963E-05
(PID.TID 0000.0001) %MON dynstat_sss_max              =   3.7335333930331E+01
(PID.TID 0000.0001) %MON dynstat_sss_min              =   3.3090717313423E+01
(PID.TID 0000.0001) %MON dynstat_sss_mean             =   3.5868419889205E+01
(PID.TID 0000.0001) %MON dynstat_sss_sd               =   4.8738132984114E-01
(PID.TID 0000.0001) %MON dynstat_sss_del2             =   4.9459450066135E-06
(PID.TID 0000.0001) %MON forcing_qnet_max             =   1.0781270926986E+03
(PID.TID 0000.0001) %MON forcing_qnet_min             =  -1.7661644821472E+02
(PID.TID 0000.0001) %MON forcing_qnet_mean            =   3.2759469247012E+02
(PID.TID 0000.0001) %MON forcing_qnet_sd              =   2.1717266135750E+02
(PID.TID 0000.0001) %MON forcing_qnet_del2            =   1.1804099571554E-03
(PID.TID 0000.0001) %MON forcing_qsw_max              =   0.0000000000000E+00
(PID.TID 0000.0001) %MON forcing_qsw_min              =  -1.6346172965201E+01
(PID.TID 0000.0001) %MON forcing_qsw_mean             =  -5.4442171048558E-01
(PID.TID 0000.0001) %MON forcing_qsw_sd               =   1.7263422781189E+00
(PID.TID 0000.0001) %MON forcing_qsw_del2             =   5.5595154947749E-06
(PID.TID 0000.0001) %MON forcing_empmr_max            =   2.2672186429178E-04
(PID.TID 0000.0001) %MON forcing_empmr_min            =  -1.0505646135958E-03
(PID.TID 0000.0001) %MON forcing_empmr_mean           =   4.2064321901800E-05
(PID.TID 0000.0001) %MON forcing_empmr_sd             =   1.0788884706227E-04
(PID.TID 0000.0001) %MON forcing_empmr_del2           =   9.0033302776519E-10
(PID.TID 0000.0001) %MON forcing_fu_max               =   5.7794983040024E-01
(PID.TID 0000.0001) %MON forcing_fu_min               =  -1.7850484584536E-01
(PID.TID 0000.0001) %MON forcing_fu_mean              =   9.8361743500508E-02
(PID.TID 0000.0001) %MON forcing_fu_sd                =   1.3589320001400E-01
(PID.TID 0000.0001) %MON forcing_fu_del2              =   1.6823090389735E-07
(PID.TID 0000.0001) %MON forcing_fv_max               =   4.1087919837800E-01
(PID.TID 0000.0001) %MON forcing_fv_min               =  -4.7355251904592E-01
(PID.TID 0000.0001) %MON forcing_fv_mean              =   2.7821861318791E-02
(PID.TID 0000.0001) %MON forcing_fv_sd                =   1.5345061663010E-01
(PID.TID 0000.0001) %MON forcing_fv_del2              =   3.1160608599910E-07
(PID.TID 0000.0001) %MON trAdv_CFL_u_max              =   7.8640623211224E-02
(PID.TID 0000.0001) %MON trAdv_CFL_v_max              =   1.4560082796279E-01
(PID.TID 0000.0001) %MON trAdv_CFL_w_max              =   5.2212979359320E-01
(PID.TID 0000.0001) %MON advcfl_uvel_max              =   7.8640622140461E-02
(PID.TID 0000.0001) %MON advcfl_vvel_max              =   1.4564319218142E-01
(PID.TID 0000.0001) %MON advcfl_wvel_max              =   5.1808227581341E-01
(PID.TID 0000.0001) %MON advcfl_W_hf_max              =   5.2212979359320E-01
(PID.TID 0000.0001) %MON pe_b_mean                    =  -6.0607774366912E-04
(PID.TID 0000.0001) %MON ke_max                       =   2.4052281424390E+00
(PID.TID 0000.0001) %MON ke_mean                      =   2.5629102492691E-03
(PID.TID 0000.0001) %MON ke_vol                       =   4.5818637279720E+16
(PID.TID 0000.0001) %MON vort_r_min                   =  -5.1268789604362E-04
(PID.TID 0000.0001) %MON vort_r_max                   =   5.9833408384751E-04
(PID.TID 0000.0001) %MON vort_a_mean                  =   8.2147625482285E-05
(PID.TID 0000.0001) %MON vort_a_sd                    =   1.0136925607538E-05
(PID.TID 0000.0001) %MON vort_p_mean                  =   8.4848846870129E-05
(PID.TID 0000.0001) %MON vort_p_sd                    =   3.4982372361922E-05
(PID.TID 0000.0001) %MON surfExpan_theta_mean         =  -2.2479500339997E-04
(PID.TID 0000.0001) %MON surfExpan_salt_mean          =  -7.4078999056668E-04
(PID.TID 0000.0001) // =======================================================
(PID.TID 0000.0001) // End MONITOR dynamic field statistics
(PID.TID 0000.0001) // =======================================================
(PID.TID 0000.0001) // =======================================================
(PID.TID 0000.0001) // Begin OBCS MONITOR field statistics
(PID.TID 0000.0001) // =======================================================
(PID.TID 0000.0001) %MON obc_N_vVel_max               =   6.9508252845469E-01
(PID.TID 0000.0001) %MON obc_N_vVel_min               =  -3.2303846185327E-01
(PID.TID 0000.0001) %MON obc_N_vVel_mean              =   1.3565341758323E-02
(PID.TID 0000.0001) %MON obc_N_vVel_sd                =   6.4642702525486E-02
(PID.TID 0000.0001) %MON obc_N_vVel_Int               =   1.9418901303540E+08
(PID.TID 0000.0001) %MON obc_S_vVel_max               =   2.3044155098749E+00
(PID.TID 0000.0001) %MON obc_S_vVel_min               =  -2.6277536312677E-01
(PID.TID 0000.0001) %MON obc_S_vVel_mean              =  -1.4753268654655E-03
(PID.TID 0000.0001) %MON obc_S_vVel_sd                =   3.6069865338561E-02
(PID.TID 0000.0001) %MON obc_S_vVel_Int               =  -4.4913227750133E+07
(PID.TID 0000.0001) %MON obc_N_theta_max              =   1.6390156227667E+01
(PID.TID 0000.0001) %MON obc_N_theta_min              =   1.8895911195086E+00
(PID.TID 0000.0001) %MON obc_N_theta_mean             =   5.1589214286885E+00
(PID.TID 0000.0001) %MON obc_N_theta_sd               =   3.4826596030751E+00
(PID.TID 0000.0001) %MON obc_S_theta_max              =   2.5544119318571E+01
(PID.TID 0000.0001) %MON obc_S_theta_min              =   1.4632988111847E+00
(PID.TID 0000.0001) %MON obc_S_theta_mean             =   5.4595513400147E+00
(PID.TID 0000.0001) %MON obc_S_theta_sd               =   5.3559060658268E+00
(PID.TID 0000.0001) %MON obc_N_salt_max               =   3.5910864381053E+01
(PID.TID 0000.0001) %MON obc_N_salt_min               =   3.3295058091112E+01
(PID.TID 0000.0001) %MON obc_N_salt_mean              =   3.5114561948457E+01
(PID.TID 0000.0001) %MON obc_N_salt_sd                =   3.0984837468061E-01
(PID.TID 0000.0001) %MON obc_S_salt_max               =   3.7318291555549E+01
(PID.TID 0000.0001) %MON obc_S_salt_min               =   3.4844694731580E+01
(PID.TID 0000.0001) %MON obc_S_salt_mean              =   3.5168372363501E+01
(PID.TID 0000.0001) %MON obc_S_salt_sd                =   4.5716829923947E-01
(PID.TID 0000.0001) // =======================================================
(PID.TID 0000.0001) // End OBCS MONITOR field statistics
(PID.TID 0000.0001) // =======================================================
(PID.TID 0000.0001) // =======================================================
(PID.TID 0000.0001) // Begin MONITOR EXF statistics
(PID.TID 0000.0001) // =======================================================
(PID.TID 0000.0001) %MON exf_tsnumber                 =                     8
(PID.TID 0000.0001) %MON exf_time_sec                 =   1.9200000000000E+03
(PID.TID 0000.0001) %MON exf_ustress_max              =   5.7578422016136E-01
(PID.TID 0000.0001) %MON exf_ustress_min              =  -1.7793835089992E-01
(PID.TID 0000.0001) %MON exf_ustress_mean             =   9.8087600195968E-02
(PID.TID 0000.0001) %MON exf_ustress_sd               =   1.3557643519246E-01
(PID.TID 0000.0001) %MON exf_ustress_del2             =   1.9369807150831E-07
(PID.TID 0000.0001) %MON exf_vstress_max              =   4.1191093887123E-01
(PID.TID 0000.0001) %MON exf_vstress_min              =  -4.7327776685762E-01
(PID.TID 0000.0001) %MON exf_vstress_mean             =   2.8007149306635E-02
(PID.TID 0000.0001) %MON exf_vstress_sd               =   1.5317541020021E-01
(PID.TID 0000.0001) %MON exf_vstress_del2             =   3.3725878331635E-07
(PID.TID 0000.0001) %MON exf_hflux_max                =   1.0607284454781E+03
(PID.TID 0000.0001) %MON exf_hflux_min                =  -1.3138132764560E+02
(PID.TID 0000.0001) %MON exf_hflux_mean               =   3.2297330908724E+02
(PID.TID 0000.0001) %MON exf_hflux_sd                 =   2.1107138144534E+02
(PID.TID 0000.0001) %MON exf_hflux_del2               =   8.6331207415864E-02
(PID.TID 0000.0001) %MON exf_sflux_max                =   2.2628991338878E-07
(PID.TID 0000.0001) %MON exf_sflux_min                =  -1.0638347822918E-06
(PID.TID 0000.0001) %MON exf_sflux_mean               =   4.1887566530259E-08
(PID.TID 0000.0001) %MON exf_sflux_sd                 =   1.0842359131350E-07
(PID.TID 0000.0001) %MON exf_sflux_del2               =   2.4062829379761E-11
(PID.TID 0000.0001) %MON exf_uwind_max                =   1.5662923147634E+01
(PID.TID 0000.0001) %MON exf_uwind_min                =  -1.0490872975605E+01
(PID.TID 0000.0001) %MON exf_uwind_mean               =   4.3671234227980E+00
(PID.TID 0000.0001) %MON exf_uwind_sd                 =   5.9065067064314E+00
(PID.TID 0000.0001) %MON exf_uwind_del2               =   1.6370803346104E-03
(PID.TID 0000.0001) %MON exf_vwind_max                =   1.4880897293856E+01
(PID.TID 0000.0001) %MON exf_vwind_min                =  -1.3099552490927E+01
(PID.TID 0000.0001) %MON exf_vwind_mean               =   1.7431726650994E+00
(PID.TID 0000.0001) %MON exf_vwind_sd                 =   7.3653647581337E+00
(PID.TID 0000.0001) %MON exf_vwind_del2               =   1.6848776620316E-03
(PID.TID 0000.0001) %MON exf_wspeed_max               =   1.8347525168302E+01
(PID.TID 0000.0001) %MON exf_wspeed_min               =   1.0909290033032E-02
(PID.TID 0000.0001) %MON exf_wspeed_mean              =   9.9260402385686E+00
(PID.TID 0000.0001) %MON exf_wspeed_sd                =   3.5664495799174E+00
(PID.TID 0000.0001) %MON exf_wspeed_del2              =   2.3491612189655E-03
(PID.TID 0000.0001) %MON exf_atemp_max                =   2.9779002379254E+02
(PID.TID 0000.0001) %MON exf_atemp_min                =   2.7433289206596E+02
(PID.TID 0000.0001) %MON exf_atemp_mean               =   2.8987808164300E+02
(PID.TID 0000.0001) %MON exf_atemp_sd                 =   4.3078581803940E+00
(PID.TID 0000.0001) %MON exf_atemp_del2               =   3.7038708628362E-03
(PID.TID 0000.0001) %MON exf_aqh_max                  =   1.4826011053040E-02
(PID.TID 0000.0001) %MON exf_aqh_min                  =   3.1009753182772E-03
(PID.TID 0000.0001) %MON exf_aqh_mean                 =   9.5854632064951E-03
(PID.TID 0000.0001) %MON exf_aqh_sd                   =   2.2599130827309E-03
(PID.TID 0000.0001) %MON exf_aqh_del2                 =   2.1303574590727E-06
(PID.TID 0000.0001) %MON exf_lwflux_max               =   1.5694811784658E+02
(PID.TID 0000.0001) %MON exf_lwflux_min               =  -9.2382486359508E-01
(PID.TID 0000.0001) %MON exf_lwflux_mean              =   7.2744913585726E+01
(PID.TID 0000.0001) %MON exf_lwflux_sd                =   2.7924457789285E+01
(PID.TID 0000.0001) %MON exf_lwflux_del2              =   1.7285111545941E-02
(PID.TID 0000.0001) %MON exf_evap_max                 =   2.4877644460815E-07
(PID.TID 0000.0001) %MON exf_evap_min                 =  -4.1747175806243E-08
(PID.TID 0000.0001) %MON exf_evap_mean                =   7.9393690412482E-08
(PID.TID 0000.0001) %MON exf_evap_sd                  =   5.5750067692141E-08
(PID.TID 0000.0001) %MON exf_evap_del2                =   2.1474055478688E-11
(PID.TID 0000.0001) %MON exf_precip_max               =   1.0629859521719E-06
(PID.TID 0000.0001) %MON exf_precip_min               =   0.0000000000000E+00
(PID.TID 0000.0001) %MON exf_precip_mean              =   3.5917644310232E-08
(PID.TID 0000.0001) %MON exf_precip_sd                =   8.2300605935477E-08
(PID.TID 0000.0001) %MON exf_precip_del2              =   1.8067339527166E-11
(PID.TID 0000.0001) %MON exf_swflux_max               =   0.0000000000000E+00
(PID.TID 0000.0001) %MON exf_swflux_min               =  -1.5291581160995E+01
(PID.TID 0000.0001) %MON exf_swflux_mean              =  -5.0929772916393E-01
(PID.TID 0000.0001) %MON exf_swflux_sd                =   1.6149653569500E+00
(PID.TID 0000.0001) %MON exf_swflux_del2              =   3.4933661977945E-04
(PID.TID 0000.0001) %MON exf_swdown_max               =   1.6990645734439E+01
(PID.TID 0000.0001) %MON exf_swdown_min               =   0.0000000000000E+00
(PID.TID 0000.0001) %MON exf_swdown_mean              =   5.6588636573770E-01
(PID.TID 0000.0001) %MON exf_swdown_sd                =   1.7944059521666E+00
(PID.TID 0000.0001) %MON exf_swdown_del2              =   3.8815179975495E-04
(PID.TID 0000.0001) %MON exf_lwdown_max               =   4.0257741237078E+02
(PID.TID 0000.0001) %MON exf_lwdown_min               =   2.4886539463930E+02
(PID.TID 0000.0001) %MON exf_lwdown_mean              =   3.4205956663360E+02
(PID.TID 0000.0001) %MON exf_lwdown_sd                =   2.7537820466709E+01
(PID.TID 0000.0001) %MON exf_lwdown_del2              =   7.4682727733073E-02
(PID.TID 0000.0001) %MON exf_apressure_max            =   1.0297694877168E+05
(PID.TID 0000.0001) %MON exf_apressure_min            =   9.9652061318926E+04
(PID.TID 0000.0001) %MON exf_apressure_mean           =   1.0184443655368E+05
(PID.TID 0000.0001) %MON exf_apressure_sd             =   8.3677717622530E+02
(PID.TID 0000.0001) %MON exf_apressure_del2           =   2.2280394381747E+01
(PID.TID 0000.0001) %MON exf_runoff_max               =   4.4374798712073E-08
(PID.TID 0000.0001) %MON exf_runoff_min               =   0.0000000000000E+00
(PID.TID 0000.0001) %MON exf_runoff_mean              =   1.5884795719908E-09
(PID.TID 0000.0001) %MON exf_runoff_sd                =   5.3901959599983E-09
(PID.TID 0000.0001) %MON exf_runoff_del2              =   1.2741189756369E-12
(PID.TID 0000.0001) // =======================================================
(PID.TID 0000.0001) // End MONITOR EXF statistics
(PID.TID 0000.0001) // =======================================================
 cg2d: Sum(rhs),rhsMax =   9.73951970979465E+02  7.14134286905293E-02
(PID.TID 0000.0001)      cg2d_init_res =   1.60212473296190E+00
(PID.TID 0000.0001)      cg2d_iters(min,last) =      -1     315
(PID.TID 0000.0001)      cg2d_last_res =   6.79072850360866E-12
(PID.TID 0000.0001) // =======================================================
(PID.TID 0000.0001) // Begin MONITOR dynamic field statistics
(PID.TID 0000.0001) // =======================================================
(PID.TID 0000.0001) %MON time_tsnumber                =                     9
(PID.TID 0000.0001) %MON time_secondsf                =   2.1600000000000E+03
(PID.TID 0000.0001) %MON dynstat_eta_max              =   9.7649488789813E-01
(PID.TID 0000.0001) %MON dynstat_eta_min              =  -1.3564482537988E+00
(PID.TID 0000.0001) %MON dynstat_eta_mean             =  -3.3121283138549E-02
(PID.TID 0000.0001) %MON dynstat_eta_sd               =   2.2593828522942E-01
(PID.TID 0000.0001) %MON dynstat_eta_del2             =   2.4503207276219E-06
(PID.TID 0000.0001) %MON dynstat_uvel_max             =   1.2933299530427E+00
(PID.TID 0000.0001) %MON dynstat_uvel_min             =  -7.6094574277716E-01
(PID.TID 0000.0001) %MON dynstat_uvel_mean            =   3.9951408863707E-03
(PID.TID 0000.0001) %MON dynstat_uvel_sd              =   5.2386611589156E-02
(PID.TID 0000.0001) %MON dynstat_uvel_del2            =   4.9949930555402E-07
(PID.TID 0000.0001) %MON dynstat_vvel_max             =   2.3665103372262E+00
(PID.TID 0000.0001) %MON dynstat_vvel_min             =  -8.9057692293098E-01
(PID.TID 0000.0001) %MON dynstat_vvel_mean            =  -3.4452278744625E-03
(PID.TID 0000.0001) %MON dynstat_vvel_sd              =   4.9049103997505E-02
(PID.TID 0000.0001) %MON dynstat_vvel_del2            =   4.5852686313621E-07
(PID.TID 0000.0001) %MON dynstat_wvel_max             =   3.5482247889019E-02
(PID.TID 0000.0001) %MON dynstat_wvel_min             =  -2.9024998329891E-02
(PID.TID 0000.0001) %MON dynstat_wvel_mean            =  -1.2678833044954E-05
(PID.TID 0000.0001) %MON dynstat_wvel_sd              =   5.9755116832543E-04
(PID.TID 0000.0001) %MON dynstat_wvel_del2            =   7.5399158804483E-08
(PID.TID 0000.0001) %MON dynstat_theta_max            =   2.6135605544717E+01
(PID.TID 0000.0001) %MON dynstat_theta_min            =   1.4688645720882E+00
(PID.TID 0000.0001) %MON dynstat_theta_mean           =   5.5098400173493E+00
(PID.TID 0000.0001) %MON dynstat_theta_sd             =   4.7733020926756E+00
(PID.TID 0000.0001) %MON dynstat_theta_del2           =   4.0226551277881E-06
(PID.TID 0000.0001) %MON dynstat_salt_max             =   3.9163771201939E+01
(PID.TID 0000.0001) %MON dynstat_salt_min             =   3.3090860833378E+01
(PID.TID 0000.0001) %MON dynstat_salt_mean            =   3.5173366446339E+01
(PID.TID 0000.0001) %MON dynstat_salt_sd              =   3.7891524077437E-01
(PID.TID 0000.0001) %MON dynstat_salt_del2            =   5.1808454569420E-07
(PID.TID 0000.0001) %MON dynstat_sst_max              =   2.6124269100306E+01
(PID.TID 0000.0001) %MON dynstat_sst_min              =   3.9554338650902E+00
(PID.TID 0000.0001) %MON dynstat_sst_mean             =   1.9636470199361E+01
(PID.TID 0000.0001) %MON dynstat_sst_sd               =   3.6361431996531E+00
(PID.TID 0000.0001) %MON dynstat_sst_del2             =   1.9159444918730E-05
(PID.TID 0000.0001) %MON dynstat_sss_max              =   3.7335378106285E+01
(PID.TID 0000.0001) %MON dynstat_sss_min              =   3.3090860833378E+01
(PID.TID 0000.0001) %MON dynstat_sss_mean             =   3.5868458748353E+01
(PID.TID 0000.0001) %MON dynstat_sss_sd               =   4.8739743640149E-01
(PID.TID 0000.0001) %MON dynstat_sss_del2             =   4.9380637860415E-06
(PID.TID 0000.0001) %MON forcing_qnet_max             =   1.0766912181165E+03
(PID.TID 0000.0001) %MON forcing_qnet_min             =  -1.7847217903681E+02
(PID.TID 0000.0001) %MON forcing_qnet_mean            =   3.2732815125913E+02
(PID.TID 0000.0001) %MON forcing_qnet_sd              =   2.1687974993431E+02
(PID.TID 0000.0001) %MON forcing_qnet_del2            =   1.1821492746962E-03
(PID.TID 0000.0001) %MON forcing_qsw_max              =   0.0000000000000E+00
(PID.TID 0000.0001) %MON forcing_qsw_min              =  -1.5291581160995E+01
(PID.TID 0000.0001) %MON forcing_qsw_mean             =  -5.0929772916393E-01
(PID.TID 0000.0001) %MON forcing_qsw_sd               =   1.6149653569500E+00
(PID.TID 0000.0001) %MON forcing_qsw_del2             =   5.2008370757572E-06
(PID.TID 0000.0001) %MON forcing_empmr_max            =   2.2628991338878E-04
(PID.TID 0000.0001) %MON forcing_empmr_min            =  -1.0638347822918E-03
(PID.TID 0000.0001) %MON forcing_empmr_mean           =   4.1887566530259E-05
(PID.TID 0000.0001) %MON forcing_empmr_sd             =   1.0842359131350E-04
(PID.TID 0000.0001) %MON forcing_empmr_del2           =   9.1324831082834E-10
(PID.TID 0000.0001) %MON forcing_fu_max               =   5.7574595596234E-01
(PID.TID 0000.0001) %MON forcing_fu_min               =  -1.7793772448967E-01
(PID.TID 0000.0001) %MON forcing_fu_mean              =   9.8194064731466E-02
(PID.TID 0000.0001) %MON forcing_fu_sd                =   1.3560510132341E-01
(PID.TID 0000.0001) %MON forcing_fu_del2              =   1.6853420850206E-07
(PID.TID 0000.0001) %MON forcing_fv_max               =   4.1185027690416E-01
(PID.TID 0000.0001) %MON forcing_fv_min               =  -4.7326992953149E-01
(PID.TID 0000.0001) %MON forcing_fv_mean              =   2.7940795814952E-02
(PID.TID 0000.0001) %MON forcing_fv_sd                =   1.5318499903214E-01
(PID.TID 0000.0001) %MON forcing_fv_del2              =   3.1360784242744E-07
(PID.TID 0000.0001) %MON trAdv_CFL_u_max              =   7.8467314923015E-02
(PID.TID 0000.0001) %MON trAdv_CFL_v_max              =   1.4952419084409E-01
(PID.TID 0000.0001) %MON trAdv_CFL_w_max              =   5.1720716772825E-01
(PID.TID 0000.0001) %MON advcfl_uvel_max              =   7.8467313854612E-02
(PID.TID 0000.0001) %MON advcfl_vvel_max              =   1.4956769660982E-01
(PID.TID 0000.0001) %MON advcfl_wvel_max              =   5.1319780983889E-01
(PID.TID 0000.0001) %MON advcfl_W_hf_max              =   5.1720716772825E-01
(PID.TID 0000.0001) %MON pe_b_mean                    =  -7.3307190510813E-04
(PID.TID 0000.0001) %MON ke_max                       =   2.5265774212944E+00
(PID.TID 0000.0001) %MON ke_mean                      =   2.5698992641027E-03
(PID.TID 0000.0001) %MON ke_vol                       =   4.5818637279720E+16
(PID.TID 0000.0001) %MON vort_r_min                   =  -5.1460231154116E-04
(PID.TID 0000.0001) %MON vort_r_max                   =   6.4040726350654E-04
(PID.TID 0000.0001) %MON vort_a_mean                  =   8.2147624682866E-05
(PID.TID 0000.0001) %MON vort_a_sd                    =   1.0140493046622E-05
(PID.TID 0000.0001) %MON vort_p_mean                  =   8.4848846044424E-05
(PID.TID 0000.0001) %MON vort_p_sd                    =   3.4984692882403E-05
(PID.TID 0000.0001) %MON surfExpan_theta_mean         =  -2.6963931847971E-04
(PID.TID 0000.0001) %MON surfExpan_salt_mean          =  -8.0967648015490E-04
(PID.TID 0000.0001) // =======================================================
(PID.TID 0000.0001) // End MONITOR dynamic field statistics
(PID.TID 0000.0001) // =======================================================
(PID.TID 0000.0001) // =======================================================
(PID.TID 0000.0001) // Begin OBCS MONITOR field statistics
(PID.TID 0000.0001) // =======================================================
(PID.TID 0000.0001) %MON obc_N_vVel_max               =   6.9494126870028E-01
(PID.TID 0000.0001) %MON obc_N_vVel_min               =  -3.2329244299176E-01
(PID.TID 0000.0001) %MON obc_N_vVel_mean              =   1.3557624938349E-02
(PID.TID 0000.0001) %MON obc_N_vVel_sd                =   6.4626123524563E-02
(PID.TID 0000.0001) %MON obc_N_vVel_Int               =   1.9407854610568E+08
(PID.TID 0000.0001) %MON obc_S_vVel_max               =   2.3665103372262E+00
(PID.TID 0000.0001) %MON obc_S_vVel_min               =  -2.6286729972578E-01
(PID.TID 0000.0001) %MON obc_S_vVel_mean              =  -2.1737948102404E-03
(PID.TID 0000.0001) %MON obc_S_vVel_sd                =   3.6128657339757E-02
(PID.TID 0000.0001) %MON obc_S_vVel_Int               =  -6.6176617317669E+07
(PID.TID 0000.0001) %MON obc_N_theta_max              =   1.6390068125480E+01
(PID.TID 0000.0001) %MON obc_N_theta_min              =   1.8895911685740E+00
(PID.TID 0000.0001) %MON obc_N_theta_mean             =   5.1589140445384E+00
(PID.TID 0000.0001) %MON obc_N_theta_sd               =   3.4826503119708E+00
(PID.TID 0000.0001) %MON obc_S_theta_max              =   2.5544016569792E+01
(PID.TID 0000.0001) %MON obc_S_theta_min              =   1.4632992074720E+00
(PID.TID 0000.0001) %MON obc_S_theta_mean             =   5.4595505349901E+00
(PID.TID 0000.0001) %MON obc_S_theta_sd               =   5.3559021947514E+00
(PID.TID 0000.0001) %MON obc_N_salt_max               =   3.5910863972689E+01
(PID.TID 0000.0001) %MON obc_N_salt_min               =   3.3295063593745E+01
(PID.TID 0000.0001) %MON obc_N_salt_mean              =   3.5114561652470E+01
(PID.TID 0000.0001) %MON obc_N_salt_sd                =   3.0984825548436E-01
(PID.TID 0000.0001) %MON obc_S_salt_max               =   3.7318284671165E+01
(PID.TID 0000.0001) %MON obc_S_salt_min               =   3.4844694783800E+01
(PID.TID 0000.0001) %MON obc_S_salt_mean              =   3.5168372291584E+01
(PID.TID 0000.0001) %MON obc_S_salt_sd                =   4.5716794818441E-01
(PID.TID 0000.0001) // =======================================================
(PID.TID 0000.0001) // End OBCS MONITOR field statistics
(PID.TID 0000.0001) // =======================================================
(PID.TID 0000.0001) // =======================================================
(PID.TID 0000.0001) // Begin MONITOR EXF statistics
(PID.TID 0000.0001) // =======================================================
(PID.TID 0000.0001) %MON exf_tsnumber                 =                     9
(PID.TID 0000.0001) %MON exf_time_sec                 =   2.1600000000000E+03
(PID.TID 0000.0001) %MON exf_ustress_max              =   5.7364981144392E-01
(PID.TID 0000.0001) %MON exf_ustress_min              =  -1.7745313970094E-01
(PID.TID 0000.0001) %MON exf_ustress_mean             =   9.7929389093097E-02
(PID.TID 0000.0001) %MON exf_ustress_sd               =   1.3531079144946E-01
(PID.TID 0000.0001) %MON exf_ustress_del2             =   1.9461597692399E-07
(PID.TID 0000.0001) %MON exf_vstress_max              =   4.1289639626514E-01
(PID.TID 0000.0001) %MON exf_vstress_min              =  -4.7304279150816E-01
(PID.TID 0000.0001) %MON exf_vstress_mean             =   2.8130081867433E-02
(PID.TID 0000.0001) %MON exf_vstress_sd               =   1.5293470271849E-01
(PID.TID 0000.0001) %MON exf_vstress_del2             =   3.3923094171514E-07
(PID.TID 0000.0001) %MON exf_hflux_max                =   1.0593931373722E+03
(PID.TID 0000.0001) %MON exf_hflux_min                =  -1.3059936647261E+02
(PID.TID 0000.0001) %MON exf_hflux_mean               =   3.2273762933908E+02
(PID.TID 0000.0001) %MON exf_hflux_sd                 =   2.1078444132748E+02
(PID.TID 0000.0001) %MON exf_hflux_del2               =   8.6241589837106E-02
(PID.TID 0000.0001) %MON exf_sflux_max                =   2.2586869834719E-07
(PID.TID 0000.0001) %MON exf_sflux_min                =  -1.0771303315570E-06
(PID.TID 0000.0001) %MON exf_sflux_mean               =   4.1715687628223E-08
(PID.TID 0000.0001) %MON exf_sflux_sd                 =   1.0898583488164E-07
(PID.TID 0000.0001) %MON exf_sflux_del2               =   2.4142725763113E-11
(PID.TID 0000.0001) %MON exf_uwind_max                =   1.5610614947678E+01
(PID.TID 0000.0001) %MON exf_uwind_min                =  -1.0472553955395E+01
(PID.TID 0000.0001) %MON exf_uwind_mean               =   4.3659499232215E+00
(PID.TID 0000.0001) %MON exf_uwind_sd                 =   5.9032298936832E+00
(PID.TID 0000.0001) %MON exf_uwind_del2               =   1.6365793142509E-03
(PID.TID 0000.0001) %MON exf_vwind_max                =   1.4857072289945E+01
(PID.TID 0000.0001) %MON exf_vwind_min                =  -1.3086600729175E+01
(PID.TID 0000.0001) %MON exf_vwind_mean               =   1.7491051149327E+00
(PID.TID 0000.0001) %MON exf_vwind_sd                 =   7.3592265302150E+00
(PID.TID 0000.0001) %MON exf_vwind_del2               =   1.6838259278958E-03
(PID.TID 0000.0001) %MON exf_wspeed_max               =   1.8332314687203E+01
(PID.TID 0000.0001) %MON exf_wspeed_min               =   5.6201625655615E-02
(PID.TID 0000.0001) %MON exf_wspeed_mean              =   9.9211028273918E+00
(PID.TID 0000.0001) %MON exf_wspeed_sd                =   3.5635578323037E+00
(PID.TID 0000.0001) %MON exf_wspeed_del2              =   2.3480584212695E-03
(PID.TID 0000.0001) %MON exf_atemp_max                =   2.9778956976470E+02
(PID.TID 0000.0001) %MON exf_atemp_min                =   2.7434401923060E+02
(PID.TID 0000.0001) %MON exf_atemp_mean               =   2.8987815515612E+02
(PID.TID 0000.0001) %MON exf_atemp_sd                 =   4.3045631087766E+00
(PID.TID 0000.0001) %MON exf_atemp_del2               =   3.7038541840537E-03
(PID.TID 0000.0001) %MON exf_aqh_max                  =   1.4847615711443E-02
(PID.TID 0000.0001) %MON exf_aqh_min                  =   3.1085224092591E-03
(PID.TID 0000.0001) %MON exf_aqh_mean                 =   9.5850800239698E-03
(PID.TID 0000.0001) %MON exf_aqh_sd                   =   2.2577219337669E-03
(PID.TID 0000.0001) %MON exf_aqh_del2                 =   2.1302306658818E-06
(PID.TID 0000.0001) %MON exf_lwflux_max               =   1.5673718884857E+02
(PID.TID 0000.0001) %MON exf_lwflux_min               =  -1.5860398169621E+00
(PID.TID 0000.0001) %MON exf_lwflux_mean              =   7.2738770571900E+01
(PID.TID 0000.0001) %MON exf_lwflux_sd                =   2.7953393307661E+01
(PID.TID 0000.0001) %MON exf_lwflux_del2              =   1.7284875824524E-02
(PID.TID 0000.0001) %MON exf_evap_max                 =   2.4847614756487E-07
(PID.TID 0000.0001) %MON exf_evap_min                 =  -4.1602958884916E-08
(PID.TID 0000.0001) %MON exf_evap_mean                =   7.9316669690658E-08
(PID.TID 0000.0001) %MON exf_evap_sd                  =   5.5663348755391E-08
(PID.TID 0000.0001) %MON exf_evap_del2                =   2.1447811428896E-11
(PID.TID 0000.0001) %MON exf_precip_max               =   1.0760962402638E-06
(PID.TID 0000.0001) %MON exf_precip_min               =   0.0000000000000E+00
(PID.TID 0000.0001) %MON exf_precip_mean              =   3.6012502490445E-08
(PID.TID 0000.0001) %MON exf_precip_sd                =   8.2959451499618E-08
(PID.TID 0000.0001) %MON exf_precip_del2              =   1.8191230476747E-11
(PID.TID 0000.0001) %MON exf_swflux_max               =   0.0000000000000E+00
(PID.TID 0000.0001) %MON exf_swflux_min               =  -1.4236989356788E+01
(PID.TID 0000.0001) %MON exf_swflux_mean              =  -4.7417374784228E-01
(PID.TID 0000.0001) %MON exf_swflux_sd                =   1.5035884357810E+00
(PID.TID 0000.0001) %MON exf_swflux_del2              =   3.2524443910501E-04
(PID.TID 0000.0001) %MON exf_swdown_max               =   1.5818877063098E+01
(PID.TID 0000.0001) %MON exf_swdown_min               =   0.0000000000000E+00
(PID.TID 0000.0001) %MON exf_swdown_mean              =   5.2685971982476E-01
(PID.TID 0000.0001) %MON exf_swdown_sd                =   1.6706538175344E+00
(PID.TID 0000.0001) %MON exf_swdown_del2              =   3.6138271011668E-04
(PID.TID 0000.0001) %MON exf_lwdown_max               =   4.0267940569039E+02
(PID.TID 0000.0001) %MON exf_lwdown_min               =   2.4880546446880E+02
(PID.TID 0000.0001) %MON exf_lwdown_mean              =   3.4206054472078E+02
(PID.TID 0000.0001) %MON exf_lwdown_sd                =   2.7550838209703E+01
(PID.TID 0000.0001) %MON exf_lwdown_del2              =   7.4683576914934E-02
(PID.TID 0000.0001) %MON exf_apressure_max            =   1.0297442353328E+05
(PID.TID 0000.0001) %MON exf_apressure_min            =   9.9650899785534E+04
(PID.TID 0000.0001) %MON exf_apressure_mean           =   1.0184280284593E+05
(PID.TID 0000.0001) %MON exf_apressure_sd             =   8.3622273229672E+02
(PID.TID 0000.0001) %MON exf_apressure_del2           =   2.2280046384320E+01
(PID.TID 0000.0001) %MON exf_runoff_max               =   4.4374798712073E-08
(PID.TID 0000.0001) %MON exf_runoff_min               =   0.0000000000000E+00
(PID.TID 0000.0001) %MON exf_runoff_mean              =   1.5884795719908E-09
(PID.TID 0000.0001) %MON exf_runoff_sd                =   5.3901959599983E-09
(PID.TID 0000.0001) %MON exf_runoff_del2              =   1.2741189756369E-12
(PID.TID 0000.0001) // =======================================================
(PID.TID 0000.0001) // End MONITOR EXF statistics
(PID.TID 0000.0001) // =======================================================
 cg2d: Sum(rhs),rhsMax =   1.14948318187700E+03  7.59660485955079E-02
(PID.TID 0000.0001)      cg2d_init_res =   1.66153149750274E+00
(PID.TID 0000.0001)      cg2d_iters(min,last) =      -1     314
(PID.TID 0000.0001)      cg2d_last_res =   6.92468995998839E-12
(PID.TID 0000.0001) // =======================================================
(PID.TID 0000.0001) // Begin MONITOR dynamic field statistics
(PID.TID 0000.0001) // =======================================================
(PID.TID 0000.0001) %MON time_tsnumber                =                    10
(PID.TID 0000.0001) %MON time_secondsf                =   2.4000000000000E+03
(PID.TID 0000.0001) %MON dynstat_eta_max              =   9.6359057052953E-01
(PID.TID 0000.0001) %MON dynstat_eta_min              =  -1.3471229536176E+00
(PID.TID 0000.0001) %MON dynstat_eta_mean             =  -3.9090590772829E-02
(PID.TID 0000.0001) %MON dynstat_eta_sd               =   2.3755381868260E-01
(PID.TID 0000.0001) %MON dynstat_eta_del2             =   2.4020363398669E-06
(PID.TID 0000.0001) %MON dynstat_uvel_max             =   1.2889466113166E+00
(PID.TID 0000.0001) %MON dynstat_uvel_min             =  -7.4318528537817E-01
(PID.TID 0000.0001) %MON dynstat_uvel_mean            =   3.9109890263740E-03
(PID.TID 0000.0001) %MON dynstat_uvel_sd              =   5.2375676080827E-02
(PID.TID 0000.0001) %MON dynstat_uvel_del2            =   5.0898062279203E-07
(PID.TID 0000.0001) %MON dynstat_vvel_max             =   2.4281312600680E+00
(PID.TID 0000.0001) %MON dynstat_vvel_min             =  -8.9043422455029E-01
(PID.TID 0000.0001) %MON dynstat_vvel_mean            =  -3.7191010320911E-03
(PID.TID 0000.0001) %MON dynstat_vvel_sd              =   4.9181025152535E-02
(PID.TID 0000.0001) %MON dynstat_vvel_del2            =   4.6703824892943E-07
(PID.TID 0000.0001) %MON dynstat_wvel_max             =   3.4995660202507E-02
(PID.TID 0000.0001) %MON dynstat_wvel_min             =  -3.0249696918404E-02
(PID.TID 0000.0001) %MON dynstat_wvel_mean            =  -1.3822697757393E-05
(PID.TID 0000.0001) %MON dynstat_wvel_sd              =   6.0143605206642E-04
(PID.TID 0000.0001) %MON dynstat_wvel_del2            =   7.5212163434909E-08
(PID.TID 0000.0001) %MON dynstat_theta_max            =   2.6135342873701E+01
(PID.TID 0000.0001) %MON dynstat_theta_min            =   1.4688647223556E+00
(PID.TID 0000.0001) %MON dynstat_theta_mean           =   5.5098449789733E+00
(PID.TID 0000.0001) %MON dynstat_theta_sd             =   4.7732900744573E+00
(PID.TID 0000.0001) %MON dynstat_theta_del2           =   4.0258911765824E-06
(PID.TID 0000.0001) %MON dynstat_salt_max             =   3.9160061242595E+01
(PID.TID 0000.0001) %MON dynstat_salt_min             =   3.3091004078493E+01
(PID.TID 0000.0001) %MON dynstat_salt_mean            =   3.5173366432577E+01
(PID.TID 0000.0001) %MON dynstat_salt_sd              =   3.7891638414079E-01
(PID.TID 0000.0001) %MON dynstat_salt_del2            =   5.2152318689118E-07
(PID.TID 0000.0001) %MON dynstat_sst_max              =   2.6124925478216E+01
(PID.TID 0000.0001) %MON dynstat_sst_min              =   3.9397861784498E+00
(PID.TID 0000.0001) %MON dynstat_sst_mean             =   1.9635592669197E+01
(PID.TID 0000.0001) %MON dynstat_sst_sd               =   3.6360100018318E+00
(PID.TID 0000.0001) %MON dynstat_sst_del2             =   1.9186168158768E-05
(PID.TID 0000.0001) %MON dynstat_sss_max              =   3.7335427073681E+01
(PID.TID 0000.0001) %MON dynstat_sss_min              =   3.3091004078493E+01
(PID.TID 0000.0001) %MON dynstat_sss_mean             =   3.5868495229227E+01
(PID.TID 0000.0001) %MON dynstat_sss_sd               =   4.8741241429984E-01
(PID.TID 0000.0001) %MON dynstat_sss_del2             =   4.9307185870522E-06
(PID.TID 0000.0001) %MON forcing_qnet_max             =   1.0753116996458E+03
(PID.TID 0000.0001) %MON forcing_qnet_min             =  -1.8033161081702E+02
(PID.TID 0000.0001) %MON forcing_qnet_mean            =   3.2707888577494E+02
(PID.TID 0000.0001) %MON forcing_qnet_sd              =   2.1660278424518E+02
(PID.TID 0000.0001) %MON forcing_qnet_del2            =   1.1804096905693E-03
(PID.TID 0000.0001) %MON forcing_qsw_max              =   0.0000000000000E+00
(PID.TID 0000.0001) %MON forcing_qsw_min              =  -1.4236989356788E+01
(PID.TID 0000.0001) %MON forcing_qsw_mean             =  -4.7417374784228E-01
(PID.TID 0000.0001) %MON forcing_qsw_sd               =   1.5035884357810E+00
(PID.TID 0000.0001) %MON forcing_qsw_del2             =   4.8421586567395E-06
(PID.TID 0000.0001) %MON forcing_empmr_max            =   2.2586869834719E-04
(PID.TID 0000.0001) %MON forcing_empmr_min            =  -1.0771303315570E-03
(PID.TID 0000.0001) %MON forcing_empmr_mean           =   4.1715687628223E-05
(PID.TID 0000.0001) %MON forcing_empmr_sd             =   1.0898583488164E-04
(PID.TID 0000.0001) %MON forcing_empmr_del2           =   9.2659836553865E-10
(PID.TID 0000.0001) %MON forcing_fu_max               =   5.7360337521640E-01
(PID.TID 0000.0001) %MON forcing_fu_min               =  -1.7744515413292E-01
(PID.TID 0000.0001) %MON forcing_fu_mean              =   9.8035611558270E-02
(PID.TID 0000.0001) %MON forcing_fu_sd                =   1.3533932105639E-01
(PID.TID 0000.0001) %MON forcing_fu_del2              =   1.6897873066890E-07
(PID.TID 0000.0001) %MON forcing_fv_max               =   4.1282730874361E-01
(PID.TID 0000.0001) %MON forcing_fv_min               =  -4.7303561354684E-01
(PID.TID 0000.0001) %MON forcing_fv_mean              =   2.8063612539244E-02
(PID.TID 0000.0001) %MON forcing_fv_sd                =   1.5294380751916E-01
(PID.TID 0000.0001) %MON forcing_fv_del2              =   3.1559539378101E-07
(PID.TID 0000.0001) %MON trAdv_CFL_u_max              =   7.8201374236468E-02
(PID.TID 0000.0001) %MON trAdv_CFL_v_max              =   1.5341761082289E-01
(PID.TID 0000.0001) %MON trAdv_CFL_w_max              =   4.9783214763869E-01
(PID.TID 0000.0001) %MON advcfl_uvel_max              =   7.8201373171686E-02
(PID.TID 0000.0001) %MON advcfl_vvel_max              =   1.5346224942349E-01
(PID.TID 0000.0001) %MON advcfl_wvel_max              =   4.9397298370350E-01
(PID.TID 0000.0001) %MON advcfl_W_hf_max              =   4.9783214763869E-01
(PID.TID 0000.0001) %MON pe_b_mean                    =  -8.7092865814297E-04
(PID.TID 0000.0001) %MON ke_max                       =   2.6566597707215E+00
(PID.TID 0000.0001) %MON ke_mean                      =   2.5764156503694E-03
(PID.TID 0000.0001) %MON ke_vol                       =   4.5818637279720E+16
(PID.TID 0000.0001) %MON vort_r_min                   =  -5.1559831152123E-04
(PID.TID 0000.0001) %MON vort_r_max                   =   6.8039273878389E-04
(PID.TID 0000.0001) %MON vort_a_mean                  =   8.2147623875456E-05
(PID.TID 0000.0001) %MON vort_a_sd                    =   1.0144061510380E-05
(PID.TID 0000.0001) %MON vort_p_mean                  =   8.4848845210464E-05
(PID.TID 0000.0001) %MON vort_p_sd                    =   3.4987602719985E-05
(PID.TID 0000.0001) %MON surfExpan_theta_mean         =  -3.1405785597633E-04
(PID.TID 0000.0001) %MON surfExpan_salt_mean          =  -8.7736283583319E-04
(PID.TID 0000.0001) // =======================================================
(PID.TID 0000.0001) // End MONITOR dynamic field statistics
(PID.TID 0000.0001) // =======================================================
(PID.TID 0000.0001) // =======================================================
(PID.TID 0000.0001) // Begin OBCS MONITOR field statistics
(PID.TID 0000.0001) // =======================================================
(PID.TID 0000.0001) %MON obc_N_vVel_max               =   6.9478873976617E-01
(PID.TID 0000.0001) %MON obc_N_vVel_min               =  -3.2356856874258E-01
(PID.TID 0000.0001) %MON obc_N_vVel_mean              =   1.3535370834126E-02
(PID.TID 0000.0001) %MON obc_N_vVel_sd                =   6.4607763335849E-02
(PID.TID 0000.0001) %MON obc_N_vVel_Int               =   1.9375997672409E+08
(PID.TID 0000.0001) %MON obc_S_vVel_max               =   2.4281312600680E+00
(PID.TID 0000.0001) %MON obc_S_vVel_min               =  -2.6295159281772E-01
(PID.TID 0000.0001) %MON obc_S_vVel_mean              =  -2.8686933837102E-03
(PID.TID 0000.0001) %MON obc_S_vVel_sd                =   3.6192046919410E-02
(PID.TID 0000.0001) %MON obc_S_vVel_Int               =  -8.7331344872667E+07
(PID.TID 0000.0001) %MON obc_N_theta_max              =   1.6389980023293E+01
(PID.TID 0000.0001) %MON obc_N_theta_min              =   1.8895912176394E+00
(PID.TID 0000.0001) %MON obc_N_theta_mean             =   5.1589066603884E+00
(PID.TID 0000.0001) %MON obc_N_theta_sd               =   3.4826410211044E+00
(PID.TID 0000.0001) %MON obc_S_theta_max              =   2.5543913821012E+01
(PID.TID 0000.0001) %MON obc_S_theta_min              =   1.4632996037592E+00
(PID.TID 0000.0001) %MON obc_S_theta_mean             =   5.4595497299655E+00
(PID.TID 0000.0001) %MON obc_S_theta_sd               =   5.3558983237118E+00
(PID.TID 0000.0001) %MON obc_N_salt_max               =   3.5910863564326E+01
(PID.TID 0000.0001) %MON obc_N_salt_min               =   3.3295069096378E+01
(PID.TID 0000.0001) %MON obc_N_salt_mean              =   3.5114561356483E+01
(PID.TID 0000.0001) %MON obc_N_salt_sd                =   3.0984813633341E-01
(PID.TID 0000.0001) %MON obc_S_salt_max               =   3.7318277786781E+01
(PID.TID 0000.0001) %MON obc_S_salt_min               =   3.4844694836021E+01
(PID.TID 0000.0001) %MON obc_S_salt_mean              =   3.5168372219668E+01
(PID.TID 0000.0001) %MON obc_S_salt_sd                =   4.5716759715695E-01
(PID.TID 0000.0001) // =======================================================
(PID.TID 0000.0001) // End OBCS MONITOR field statistics
(PID.TID 0000.0001) // =======================================================
(PID.TID 0000.0001) // =======================================================
(PID.TID 0000.0001) // Begin MONITOR EXF statistics
(PID.TID 0000.0001) // =======================================================
(PID.TID 0000.0001) %MON exf_tsnumber                 =                    10
(PID.TID 0000.0001) %MON exf_time_sec                 =   2.4000000000000E+03
(PID.TID 0000.0001) %MON exf_ustress_max              =   5.7156081845264E-01
(PID.TID 0000.0001) %MON exf_ustress_min              =  -1.7698717143622E-01
(PID.TID 0000.0001) %MON exf_ustress_mean             =   9.7779650954205E-02
(PID.TID 0000.0001) %MON exf_ustress_sd               =   1.3506581367469E-01
(PID.TID 0000.0001) %MON exf_ustress_del2             =   1.9611452458326E-07
(PID.TID 0000.0001) %MON exf_vstress_max              =   4.1386968536094E-01
(PID.TID 0000.0001) %MON exf_vstress_min              =  -4.7283172728932E-01
(PID.TID 0000.0001) %MON exf_vstress_mean             =   2.8256694326692E-02
(PID.TID 0000.0001) %MON exf_vstress_sd               =   1.5271655038548E-01
(PID.TID 0000.0001) %MON exf_vstress_del2             =   3.4228262886409E-07
(PID.TID 0000.0001) %MON exf_hflux_max                =   1.0581079493137E+03
(PID.TID 0000.0001) %MON exf_hflux_min                =  -1.2981935400020E+02
(PID.TID 0000.0001) %MON exf_hflux_mean               =   3.2251684218636E+02
(PID.TID 0000.0001) %MON exf_hflux_sd                 =   2.1051142064913E+02
(PID.TID 0000.0001) %MON exf_hflux_del2               =   8.6157007347431E-02
(PID.TID 0000.0001) %MON exf_sflux_max                =   2.2545662117797E-07
(PID.TID 0000.0001) %MON exf_sflux_min                =  -1.0904386352636E-06
(PID.TID 0000.0001) %MON exf_sflux_mean               =   4.1548158205516E-08
(PID.TID 0000.0001) %MON exf_sflux_sd                 =   1.0957487236466E-07
(PID.TID 0000.0001) %MON exf_sflux_del2               =   2.4228367783029E-11
(PID.TID 0000.0001) %MON exf_uwind_max                =   1.5572520832155E+01
(PID.TID 0000.0001) %MON exf_uwind_min                =  -1.0454862062616E+01
(PID.TID 0000.0001) %MON exf_uwind_mean               =   4.3648314503455E+00
(PID.TID 0000.0001) %MON exf_uwind_sd                 =   5.9002340549767E+00
(PID.TID 0000.0001) %MON exf_uwind_del2               =   1.6361422579481E-03
(PID.TID 0000.0001) %MON exf_vwind_max                =   1.4834976200907E+01
(PID.TID 0000.0001) %MON exf_vwind_min                =  -1.3077932008100E+01
(PID.TID 0000.0001) %MON exf_vwind_mean               =   1.7550497702744E+00
(PID.TID 0000.0001) %MON exf_vwind_sd                 =   7.3534799106117E+00
(PID.TID 0000.0001) %MON exf_vwind_del2               =   1.6828693844372E-03
(PID.TID 0000.0001) %MON exf_wspeed_max               =   1.8317531698992E+01
(PID.TID 0000.0001) %MON exf_wspeed_min               =   3.4198614443246E-02
(PID.TID 0000.0001) %MON exf_wspeed_mean              =   9.9165485798193E+00
(PID.TID 0000.0001) %MON exf_wspeed_sd                =   3.5609614220636E+00
(PID.TID 0000.0001) %MON exf_wspeed_del2              =   2.3470684707401E-03
(PID.TID 0000.0001) %MON exf_atemp_max                =   2.9778911573686E+02
(PID.TID 0000.0001) %MON exf_atemp_min                =   2.7435514639524E+02
(PID.TID 0000.0001) %MON exf_atemp_mean               =   2.8987822866924E+02
(PID.TID 0000.0001) %MON exf_atemp_sd                 =   4.3013019746491E+00
(PID.TID 0000.0001) %MON exf_atemp_del2               =   3.7038396864252E-03
(PID.TID 0000.0001) %MON exf_aqh_max                  =   1.4869220369846E-02
(PID.TID 0000.0001) %MON exf_aqh_min                  =   3.1160695002410E-03
(PID.TID 0000.0001) %MON exf_aqh_mean                 =   9.5846968414445E-03
(PID.TID 0000.0001) %MON exf_aqh_sd                   =   2.2555786417191E-03
(PID.TID 0000.0001) %MON exf_aqh_del2                 =   2.1301065234648E-06
(PID.TID 0000.0001) %MON exf_lwflux_max               =   1.5652649043418E+02
(PID.TID 0000.0001) %MON exf_lwflux_min               =  -2.2479589846655E+00
(PID.TID 0000.0001) %MON exf_lwflux_mean              =   7.2732946723662E+01
(PID.TID 0000.0001) %MON exf_lwflux_sd                =   2.7985352659942E+01
(PID.TID 0000.0001) %MON exf_lwflux_del2              =   1.7284967445031E-02
(PID.TID 0000.0001) %MON exf_evap_max                 =   2.4818856781449E-07
(PID.TID 0000.0001) %MON exf_evap_min                 =  -4.1460452381025E-08
(PID.TID 0000.0001) %MON exf_evap_mean                =   7.9243998448165E-08
(PID.TID 0000.0001) %MON exf_evap_sd                  =   5.5580515852743E-08
(PID.TID 0000.0001) %MON exf_evap_del2                =   2.1423023769641E-11
(PID.TID 0000.0001) %MON exf_precip_max               =   1.0892065283557E-06
(PID.TID 0000.0001) %MON exf_precip_min               =   0.0000000000000E+00
(PID.TID 0000.0001) %MON exf_precip_mean              =   3.6107360670658E-08
(PID.TID 0000.0001) %MON exf_precip_sd                =   8.3647834736976E-08
(PID.TID 0000.0001) %MON exf_precip_del2              =   1.8320848428831E-11
(PID.TID 0000.0001) %MON exf_swflux_max               =   0.0000000000000E+00
(PID.TID 0000.0001) %MON exf_swflux_min               =  -1.3182397552582E+01
(PID.TID 0000.0001) %MON exf_swflux_mean              =  -4.3904976652063E-01
(PID.TID 0000.0001) %MON exf_swflux_sd                =   1.3922115146120E+00
(PID.TID 0000.0001) %MON exf_swflux_del2              =   3.0115225843056E-04
(PID.TID 0000.0001) %MON exf_swdown_max               =   1.4647108391757E+01
(PID.TID 0000.0001) %MON exf_swdown_min               =   0.0000000000000E+00
(PID.TID 0000.0001) %MON exf_swdown_mean              =   4.8783307391181E-01
(PID.TID 0000.0001) %MON exf_swdown_sd                =   1.5469016829023E+00
(PID.TID 0000.0001) %MON exf_swdown_del2              =   3.3461362047840E-04
(PID.TID 0000.0001) %MON exf_lwdown_max               =   4.0278139901000E+02
(PID.TID 0000.0001) %MON exf_lwdown_min               =   2.4874553429829E+02
(PID.TID 0000.0001) %MON exf_lwdown_mean              =   3.4206152280796E+02
(PID.TID 0000.0001) %MON exf_lwdown_sd                =   2.7567035306648E+01
(PID.TID 0000.0001) %MON exf_lwdown_del2              =   7.4684488646118E-02
(PID.TID 0000.0001) %MON exf_apressure_max            =   1.0297189829487E+05
(PID.TID 0000.0001) %MON exf_apressure_min            =   9.9649738252143E+04
(PID.TID 0000.0001) %MON exf_apressure_mean           =   1.0184116913818E+05
(PID.TID 0000.0001) %MON exf_apressure_sd             =   8.3567339290367E+02
(PID.TID 0000.0001) %MON exf_apressure_del2           =   2.2279698397228E+01
(PID.TID 0000.0001) %MON exf_runoff_max               =   4.4374798712073E-08
(PID.TID 0000.0001) %MON exf_runoff_min               =   0.0000000000000E+00
(PID.TID 0000.0001) %MON exf_runoff_mean              =   1.5884795719908E-09
(PID.TID 0000.0001) %MON exf_runoff_sd                =   5.3901959599983E-09
(PID.TID 0000.0001) %MON exf_runoff_del2              =   1.2741189756369E-12
(PID.TID 0000.0001) // =======================================================
(PID.TID 0000.0001) // End MONITOR EXF statistics
(PID.TID 0000.0001) // =======================================================
 cg2d: Sum(rhs),rhsMax =   1.33781218030144E+03  7.91467741169884E-02
(PID.TID 0000.0001)      cg2d_init_res =   1.62978470539453E+00
(PID.TID 0000.0001)      cg2d_iters(min,last) =      -1     313
(PID.TID 0000.0001)      cg2d_last_res =   6.85088397505044E-12
(PID.TID 0000.0001) // =======================================================
(PID.TID 0000.0001) // Begin MONITOR dynamic field statistics
(PID.TID 0000.0001) // =======================================================
(PID.TID 0000.0001) %MON time_tsnumber                =                    11
(PID.TID 0000.0001) %MON time_secondsf                =   2.6400000000000E+03
(PID.TID 0000.0001) %MON dynstat_eta_max              =   9.1708207823374E-01
(PID.TID 0000.0001) %MON dynstat_eta_min              =  -1.2129072986692E+00
(PID.TID 0000.0001) %MON dynstat_eta_mean             =  -4.5495114061326E-02
(PID.TID 0000.0001) %MON dynstat_eta_sd               =   2.4853731869636E-01
(PID.TID 0000.0001) %MON dynstat_eta_del2             =   2.3480302110110E-06
(PID.TID 0000.0001) %MON dynstat_uvel_max             =   1.2834354466912E+00
(PID.TID 0000.0001) %MON dynstat_uvel_min             =  -7.2157221218840E-01
(PID.TID 0000.0001) %MON dynstat_uvel_mean            =   3.8231332067804E-03
(PID.TID 0000.0001) %MON dynstat_uvel_sd              =   5.2374315689366E-02
(PID.TID 0000.0001) %MON dynstat_uvel_del2            =   5.1760545902310E-07
(PID.TID 0000.0001) %MON dynstat_vvel_max             =   2.4892628007229E+00
(PID.TID 0000.0001) %MON dynstat_vvel_min             =  -8.8965442237456E-01
(PID.TID 0000.0001) %MON dynstat_vvel_mean            =  -3.9784449885563E-03
(PID.TID 0000.0001) %MON dynstat_vvel_sd              =   4.9292124462774E-02
(PID.TID 0000.0001) %MON dynstat_vvel_del2            =   4.7474519302582E-07
(PID.TID 0000.0001) %MON dynstat_wvel_max             =   3.4427179042321E-02
(PID.TID 0000.0001) %MON dynstat_wvel_min             =  -3.1225007983831E-02
(PID.TID 0000.0001) %MON dynstat_wvel_mean            =  -1.4949646400671E-05
(PID.TID 0000.0001) %MON dynstat_wvel_sd              =   6.0430162133470E-04
(PID.TID 0000.0001) %MON dynstat_wvel_del2            =   7.4004859852221E-08
(PID.TID 0000.0001) %MON dynstat_theta_max            =   2.6135520691800E+01
(PID.TID 0000.0001) %MON dynstat_theta_min            =   1.4688648822912E+00
(PID.TID 0000.0001) %MON dynstat_theta_mean           =   5.5098519105559E+00
(PID.TID 0000.0001) %MON dynstat_theta_sd             =   4.7732809717160E+00
(PID.TID 0000.0001) %MON dynstat_theta_del2           =   4.0289238433128E-06
(PID.TID 0000.0001) %MON dynstat_salt_max             =   3.9156172799416E+01
(PID.TID 0000.0001) %MON dynstat_salt_min             =   3.3091147158637E+01
(PID.TID 0000.0001) %MON dynstat_salt_mean            =   3.5173366564082E+01
(PID.TID 0000.0001) %MON dynstat_salt_sd              =   3.7891764051337E-01
(PID.TID 0000.0001) %MON dynstat_salt_del2            =   5.2464036686854E-07
(PID.TID 0000.0001) %MON dynstat_sst_max              =   2.6125662550152E+01
(PID.TID 0000.0001) %MON dynstat_sst_min              =   3.9240574707717E+00
(PID.TID 0000.0001) %MON dynstat_sst_mean             =   1.9634763216474E+01
(PID.TID 0000.0001) %MON dynstat_sst_sd               =   3.6358857377509E+00
(PID.TID 0000.0001) %MON dynstat_sst_del2             =   1.9219091132268E-05
(PID.TID 0000.0001) %MON dynstat_sss_max              =   3.7335480317267E+01
(PID.TID 0000.0001) %MON dynstat_sss_min              =   3.3091147158637E+01
(PID.TID 0000.0001) %MON dynstat_sss_mean             =   3.5868529612574E+01
(PID.TID 0000.0001) %MON dynstat_sss_sd               =   4.8742632604179E-01
(PID.TID 0000.0001) %MON dynstat_sss_del2             =   4.9238681617571E-06
(PID.TID 0000.0001) %MON forcing_qnet_max             =   1.0739833387685E+03
(PID.TID 0000.0001) %MON forcing_qnet_min             =  -1.8219527595784E+02
(PID.TID 0000.0001) %MON forcing_qnet_mean            =   3.2684490936222E+02
(PID.TID 0000.0001) %MON forcing_qnet_sd              =   2.1634012612055E+02
(PID.TID 0000.0001) %MON forcing_qnet_del2            =   1.1786456810091E-03
(PID.TID 0000.0001) %MON forcing_qsw_max              =   0.0000000000000E+00
(PID.TID 0000.0001) %MON forcing_qsw_min              =  -1.3182397552582E+01
(PID.TID 0000.0001) %MON forcing_qsw_mean             =  -4.3904976652063E-01
(PID.TID 0000.0001) %MON forcing_qsw_sd               =   1.3922115146120E+00
(PID.TID 0000.0001) %MON forcing_qsw_del2             =   4.4834802377217E-06
(PID.TID 0000.0001) %MON forcing_empmr_max            =   2.2545662117797E-04
(PID.TID 0000.0001) %MON forcing_empmr_min            =  -1.0904386352636E-03
(PID.TID 0000.0001) %MON forcing_empmr_mean           =   4.1548158205516E-05
(PID.TID 0000.0001) %MON forcing_empmr_sd             =   1.0957487236466E-04
(PID.TID 0000.0001) %MON forcing_empmr_del2           =   9.4070783770834E-10
(PID.TID 0000.0001) %MON forcing_fu_max               =   5.7150483552908E-01
(PID.TID 0000.0001) %MON forcing_fu_min               =  -1.7697216483836E-01
(PID.TID 0000.0001) %MON forcing_fu_mean              =   9.7885639063323E-02
(PID.TID 0000.0001) %MON forcing_fu_sd                =   1.3509421792475E-01
(PID.TID 0000.0001) %MON forcing_fu_del2              =   1.6959081284037E-07
(PID.TID 0000.0001) %MON forcing_fv_max               =   4.1380411695252E-01
(PID.TID 0000.0001) %MON forcing_fv_min               =  -4.7282479337103E-01
(PID.TID 0000.0001) %MON forcing_fv_mean              =   2.8190102811733E-02
(PID.TID 0000.0001) %MON forcing_fv_sd                =   1.5272516473484E-01
(PID.TID 0000.0001) %MON forcing_fv_del2              =   3.1811075275375E-07
(PID.TID 0000.0001) %MON trAdv_CFL_u_max              =   7.7867007674220E-02
(PID.TID 0000.0001) %MON trAdv_CFL_v_max              =   1.5728010996675E-01
(PID.TID 0000.0001) %MON trAdv_CFL_w_max              =   5.0141440510172E-01
(PID.TID 0000.0001) %MON advcfl_uvel_max              =   7.7867006613991E-02
(PID.TID 0000.0001) %MON advcfl_vvel_max              =   1.5732587240546E-01
(PID.TID 0000.0001) %MON advcfl_wvel_max              =   4.9305749835002E-01
(PID.TID 0000.0001) %MON advcfl_W_hf_max              =   5.0141440510172E-01
(PID.TID 0000.0001) %MON pe_b_mean                    =  -1.0194474713330E-03
(PID.TID 0000.0001) %MON ke_max                       =   2.7943368029821E+00
(PID.TID 0000.0001) %MON ke_mean                      =   2.5824354656347E-03
(PID.TID 0000.0001) %MON ke_vol                       =   4.5818637279720E+16
(PID.TID 0000.0001) %MON vort_r_min                   =  -5.1590291124525E-04
(PID.TID 0000.0001) %MON vort_r_max                   =   7.1369416044494E-04
(PID.TID 0000.0001) %MON vort_a_mean                  =   8.2147623060782E-05
(PID.TID 0000.0001) %MON vort_a_sd                    =   1.0147561288627E-05
(PID.TID 0000.0001) %MON vort_p_mean                  =   8.4848844369001E-05
(PID.TID 0000.0001) %MON vort_p_sd                    =   3.4990987186421E-05
(PID.TID 0000.0001) %MON surfExpan_theta_mean         =  -3.5726843319146E-04
(PID.TID 0000.0001) %MON surfExpan_salt_mean          =  -9.4367703779691E-04
(PID.TID 0000.0001) // =======================================================
(PID.TID 0000.0001) // End MONITOR dynamic field statistics
(PID.TID 0000.0001) // =======================================================
(PID.TID 0000.0001) // =======================================================
(PID.TID 0000.0001) // Begin OBCS MONITOR field statistics
(PID.TID 0000.0001) // =======================================================
(PID.TID 0000.0001) %MON obc_N_vVel_max               =   6.9462511267569E-01
(PID.TID 0000.0001) %MON obc_N_vVel_min               =  -3.2386652640102E-01
(PID.TID 0000.0001) %MON obc_N_vVel_mean              =   1.3498598564145E-02
(PID.TID 0000.0001) %MON obc_N_vVel_sd                =   6.4587781615047E-02
(PID.TID 0000.0001) %MON obc_N_vVel_Int               =   1.9323357857342E+08
(PID.TID 0000.0001) %MON obc_S_vVel_max               =   2.4892628007229E+00
(PID.TID 0000.0001) %MON obc_S_vVel_min               =  -2.6302812209586E-01
(PID.TID 0000.0001) %MON obc_S_vVel_mean              =  -3.5591813948131E-03
(PID.TID 0000.0001) %MON obc_S_vVel_sd                =   3.6260055291612E-02
(PID.TID 0000.0001) %MON obc_S_vVel_Int               =  -1.0835180212003E+08
(PID.TID 0000.0001) %MON obc_N_theta_max              =   1.6389891921106E+01
(PID.TID 0000.0001) %MON obc_N_theta_min              =   1.8895912667048E+00
(PID.TID 0000.0001) %MON obc_N_theta_mean             =   5.1588992762384E+00
(PID.TID 0000.0001) %MON obc_N_theta_sd               =   3.4826317304761E+00
(PID.TID 0000.0001) %MON obc_S_theta_max              =   2.5543811072233E+01
(PID.TID 0000.0001) %MON obc_S_theta_min              =   1.4633000000465E+00
(PID.TID 0000.0001) %MON obc_S_theta_mean             =   5.4595489249409E+00
(PID.TID 0000.0001) %MON obc_S_theta_sd               =   5.3558944527081E+00
(PID.TID 0000.0001) %MON obc_N_salt_max               =   3.5910863155963E+01
(PID.TID 0000.0001) %MON obc_N_salt_min               =   3.3295074599012E+01
(PID.TID 0000.0001) %MON obc_N_salt_mean              =   3.5114561060497E+01
(PID.TID 0000.0001) %MON obc_N_salt_sd                =   3.0984801722386E-01
(PID.TID 0000.0001) %MON obc_S_salt_max               =   3.7318270902396E+01
(PID.TID 0000.0001) %MON obc_S_salt_min               =   3.4844694888241E+01
(PID.TID 0000.0001) %MON obc_S_salt_mean              =   3.5168372147751E+01
(PID.TID 0000.0001) %MON obc_S_salt_sd                =   4.5716724612664E-01
(PID.TID 0000.0001) // =======================================================
(PID.TID 0000.0001) // End OBCS MONITOR field statistics
(PID.TID 0000.0001) // =======================================================
(PID.TID 0000.0001) // =======================================================
(PID.TID 0000.0001) // Begin MONITOR EXF statistics
(PID.TID 0000.0001) // =======================================================
(PID.TID 0000.0001) %MON exf_tsnumber                 =                    11
(PID.TID 0000.0001) %MON exf_time_sec                 =   2.6400000000000E+03
(PID.TID 0000.0001) %MON exf_ustress_max              =   5.6950681009691E-01
(PID.TID 0000.0001) %MON exf_ustress_min              =  -1.7653975865267E-01
(PID.TID 0000.0001) %MON exf_ustress_mean             =   9.7637872058044E-02
(PID.TID 0000.0001) %MON exf_ustress_sd               =   1.3484019141183E-01
(PID.TID 0000.0001) %MON exf_ustress_del2             =   1.9715507911944E-07
(PID.TID 0000.0001) %MON exf_vstress_max              =   4.1482390225622E-01
(PID.TID 0000.0001) %MON exf_vstress_min              =  -4.7263035545916E-01
(PID.TID 0000.0001) %MON exf_vstress_mean             =   2.8386833842887E-02
(PID.TID 0000.0001) %MON exf_vstress_sd               =   1.5251939828711E-01
(PID.TID 0000.0001) %MON exf_vstress_del2             =   3.4549705826171E-07
(PID.TID 0000.0001) %MON exf_hflux_max                =   1.0568667901839E+03
(PID.TID 0000.0001) %MON exf_hflux_min                =  -1.2902765942854E+02
(PID.TID 0000.0001) %MON exf_hflux_mean               =   3.2230936757690E+02
(PID.TID 0000.0001) %MON exf_hflux_sd                 =   2.1025113288295E+02
(PID.TID 0000.0001) %MON exf_hflux_del2               =   8.6077138436091E-02
(PID.TID 0000.0001) %MON exf_sflux_max                =   2.2505288604765E-07
(PID.TID 0000.0001) %MON exf_sflux_min                =  -1.1037395143867E-06
(PID.TID 0000.0001) %MON exf_sflux_mean               =   4.1384576561274E-08
(PID.TID 0000.0001) %MON exf_sflux_sd                 =   1.1019005672758E-07
(PID.TID 0000.0001) %MON exf_sflux_del2               =   2.4319592058659E-11
(PID.TID 0000.0001) %MON exf_uwind_max                =   1.5565504697445E+01
(PID.TID 0000.0001) %MON exf_uwind_min                =  -1.0437466700040E+01
(PID.TID 0000.0001) %MON exf_uwind_mean               =   4.3637599136833E+00
(PID.TID 0000.0001) %MON exf_uwind_sd                 =   5.8975039058868E+00
(PID.TID 0000.0001) %MON exf_uwind_del2               =   1.6357642584385E-03
(PID.TID 0000.0001) %MON exf_vwind_max                =   1.4814747310997E+01
(PID.TID 0000.0001) %MON exf_vwind_min                =  -1.3069738518799E+01
(PID.TID 0000.0001) %MON exf_vwind_mean               =   1.7610009176977E+00
(PID.TID 0000.0001) %MON exf_vwind_sd                 =   7.3481036786558E+00
(PID.TID 0000.0001) %MON exf_vwind_del2               =   1.6820006102917E-03
(PID.TID 0000.0001) %MON exf_wspeed_max               =   1.8303174190145E+01
(PID.TID 0000.0001) %MON exf_wspeed_min               =   3.8478155228924E-02
(PID.TID 0000.0001) %MON exf_wspeed_mean              =   9.9123523865307E+00
(PID.TID 0000.0001) %MON exf_wspeed_sd                =   3.5586479137259E+00
(PID.TID 0000.0001) %MON exf_wspeed_del2              =   2.3461826421248E-03
(PID.TID 0000.0001) %MON exf_atemp_max                =   2.9778866170902E+02
(PID.TID 0000.0001) %MON exf_atemp_min                =   2.7436169403858E+02
(PID.TID 0000.0001) %MON exf_atemp_mean               =   2.8987830218236E+02
(PID.TID 0000.0001) %MON exf_atemp_sd                 =   4.2980748552613E+00
(PID.TID 0000.0001) %MON exf_atemp_del2               =   3.7038273699764E-03
(PID.TID 0000.0001) %MON exf_aqh_max                  =   1.4890825028249E-02
(PID.TID 0000.0001) %MON exf_aqh_min                  =   3.1236165912228E-03
(PID.TID 0000.0001) %MON exf_aqh_mean                 =   9.5843136589192E-03
(PID.TID 0000.0001) %MON exf_aqh_sd                   =   2.2534833431380E-03
(PID.TID 0000.0001) %MON exf_aqh_del2                 =   2.1299850322852E-06
(PID.TID 0000.0001) %MON exf_lwflux_max               =   1.5631597877310E+02
(PID.TID 0000.0001) %MON exf_lwflux_min               =  -2.9093355148308E+00
(PID.TID 0000.0001) %MON exf_lwflux_mean              =   7.2727390345067E+01
(PID.TID 0000.0001) %MON exf_lwflux_sd                =   2.8020307115050E+01
(PID.TID 0000.0001) %MON exf_lwflux_del2              =   1.7285374946218E-02
(PID.TID 0000.0001) %MON exf_evap_max                 =   2.4791215998381E-07
(PID.TID 0000.0001) %MON exf_evap_min                 =  -4.1317156783213E-08
(PID.TID 0000.0001) %MON exf_evap_mean                =   7.9175274984136E-08
(PID.TID 0000.0001) %MON exf_evap_sd                  =   5.5501189370531E-08
(PID.TID 0000.0001) %MON exf_evap_del2                =   2.1399547741072E-11
(PID.TID 0000.0001) %MON exf_precip_max               =   1.1023168164476E-06
(PID.TID 0000.0001) %MON exf_precip_min               =   0.0000000000000E+00
(PID.TID 0000.0001) %MON exf_precip_mean              =   3.6202218850871E-08
(PID.TID 0000.0001) %MON exf_precip_sd                =   8.4365032605622E-08
(PID.TID 0000.0001) %MON exf_precip_del2              =   1.8456072720707E-11
(PID.TID 0000.0001) %MON exf_swflux_max               =   0.0000000000000E+00
(PID.TID 0000.0001) %MON exf_swflux_min               =  -1.2127805748375E+01
(PID.TID 0000.0001) %MON exf_swflux_mean              =  -4.0392578519898E-01
(PID.TID 0000.0001) %MON exf_swflux_sd                =   1.2808345934431E+00
(PID.TID 0000.0001) %MON exf_swflux_del2              =   2.7706007775612E-04
(PID.TID 0000.0001) %MON exf_swdown_max               =   1.3475339720417E+01
(PID.TID 0000.0001) %MON exf_swdown_min               =   0.0000000000000E+00
(PID.TID 0000.0001) %MON exf_swdown_mean              =   4.4880642799887E-01
(PID.TID 0000.0001) %MON exf_swdown_sd                =   1.4231495482701E+00
(PID.TID 0000.0001) %MON exf_swdown_del2              =   3.0784453084013E-04
(PID.TID 0000.0001) %MON exf_lwdown_max               =   4.0288339232961E+02
(PID.TID 0000.0001) %MON exf_lwdown_min               =   2.4868560412779E+02
(PID.TID 0000.0001) %MON exf_lwdown_mean              =   3.4206250089514E+02
(PID.TID 0000.0001) %MON exf_lwdown_sd                =   2.7586406157360E+01
(PID.TID 0000.0001) %MON exf_lwdown_del2              =   7.4685462924335E-02
(PID.TID 0000.0001) %MON exf_apressure_max            =   1.0296937305646E+05
(PID.TID 0000.0001) %MON exf_apressure_min            =   9.9648576718751E+04
(PID.TID 0000.0001) %MON exf_apressure_mean           =   1.0183953543043E+05
(PID.TID 0000.0001) %MON exf_apressure_sd             =   8.3512916811929E+02
(PID.TID 0000.0001) %MON exf_apressure_del2           =   2.2279350420471E+01
(PID.TID 0000.0001) %MON exf_runoff_max               =   4.4374798712073E-08
(PID.TID 0000.0001) %MON exf_runoff_min               =   0.0000000000000E+00
(PID.TID 0000.0001) %MON exf_runoff_mean              =   1.5884795719908E-09
(PID.TID 0000.0001) %MON exf_runoff_sd                =   5.3901959599983E-09
(PID.TID 0000.0001) %MON exf_runoff_del2              =   1.2741189756369E-12
(PID.TID 0000.0001) // =======================================================
(PID.TID 0000.0001) // End MONITOR EXF statistics
(PID.TID 0000.0001) // =======================================================
 cg2d: Sum(rhs),rhsMax =   1.53870977442444E+03  8.10561992776495E-02
(PID.TID 0000.0001)      cg2d_init_res =   1.53654539044658E+00
(PID.TID 0000.0001)      cg2d_iters(min,last) =      -1     312
(PID.TID 0000.0001)      cg2d_last_res =   6.96095671333229E-12
(PID.TID 0000.0001) // =======================================================
(PID.TID 0000.0001) // Begin MONITOR dynamic field statistics
(PID.TID 0000.0001) // =======================================================
(PID.TID 0000.0001) %MON time_tsnumber                =                    12
(PID.TID 0000.0001) %MON time_secondsf                =   2.8800000000000E+03
(PID.TID 0000.0001) %MON dynstat_eta_max              =   8.0510627149914E-01
(PID.TID 0000.0001) %MON dynstat_eta_min              =  -1.1195458226672E+00
(PID.TID 0000.0001) %MON dynstat_eta_mean             =  -5.2327058854363E-02
(PID.TID 0000.0001) %MON dynstat_eta_sd               =   2.5894832213070E-01
(PID.TID 0000.0001) %MON dynstat_eta_del2             =   2.3247094278759E-06
(PID.TID 0000.0001) %MON dynstat_uvel_max             =   1.2774507000547E+00
(PID.TID 0000.0001) %MON dynstat_uvel_min             =  -7.0200136333036E-01
(PID.TID 0000.0001) %MON dynstat_uvel_mean            =   3.7331343999513E-03
(PID.TID 0000.0001) %MON dynstat_uvel_sd              =   5.2381893011781E-02
(PID.TID 0000.0001) %MON dynstat_uvel_del2            =   5.2554704512809E-07
(PID.TID 0000.0001) %MON dynstat_vvel_max             =   2.5498895951784E+00
(PID.TID 0000.0001) %MON dynstat_vvel_min             =  -8.8837468569913E-01
(PID.TID 0000.0001) %MON dynstat_vvel_mean            =  -4.2201768780396E-03
(PID.TID 0000.0001) %MON dynstat_vvel_sd              =   4.9383830007934E-02
(PID.TID 0000.0001) %MON dynstat_vvel_del2            =   4.8208887216777E-07
(PID.TID 0000.0001) %MON dynstat_wvel_max             =   3.5438128715779E-02
(PID.TID 0000.0001) %MON dynstat_wvel_min             =  -3.1948921703473E-02
(PID.TID 0000.0001) %MON dynstat_wvel_mean            =  -1.6058314563893E-05
(PID.TID 0000.0001) %MON dynstat_wvel_sd              =   6.0631266640367E-04
(PID.TID 0000.0001) %MON dynstat_wvel_del2            =   7.2348108049257E-08
(PID.TID 0000.0001) %MON dynstat_theta_max            =   2.6136618878169E+01
(PID.TID 0000.0001) %MON dynstat_theta_min            =   1.4688650525671E+00
(PID.TID 0000.0001) %MON dynstat_theta_mean           =   5.5098607252507E+00
(PID.TID 0000.0001) %MON dynstat_theta_sd             =   4.7732746263823E+00
(PID.TID 0000.0001) %MON dynstat_theta_del2           =   4.0313636490432E-06
(PID.TID 0000.0001) %MON dynstat_salt_max             =   3.9152110896557E+01
(PID.TID 0000.0001) %MON dynstat_salt_min             =   3.3091290088273E+01
(PID.TID 0000.0001) %MON dynstat_salt_mean            =   3.5173366820608E+01
(PID.TID 0000.0001) %MON dynstat_salt_sd              =   3.7891897601127E-01
(PID.TID 0000.0001) %MON dynstat_salt_del2            =   5.2738748759841E-07
(PID.TID 0000.0001) %MON dynstat_sst_max              =   2.6126422714247E+01
(PID.TID 0000.0001) %MON dynstat_sst_min              =   3.9082475410198E+00
(PID.TID 0000.0001) %MON dynstat_sst_mean             =   1.9633974458085E+01
(PID.TID 0000.0001) %MON dynstat_sst_sd               =   3.6357687902367E+00
(PID.TID 0000.0001) %MON dynstat_sst_del2             =   1.9259270315274E-05
(PID.TID 0000.0001) %MON dynstat_sss_max              =   3.7335537266670E+01
(PID.TID 0000.0001) %MON dynstat_sss_min              =   3.3091290088273E+01
(PID.TID 0000.0001) %MON dynstat_sss_mean             =   3.5868562116702E+01
(PID.TID 0000.0001) %MON dynstat_sss_sd               =   4.8743925733045E-01
(PID.TID 0000.0001) %MON dynstat_sss_del2             =   4.9175030833359E-06
(PID.TID 0000.0001) %MON forcing_qnet_max             =   1.0726999058630E+03
(PID.TID 0000.0001) %MON forcing_qnet_min             =  -1.8406364149527E+02
(PID.TID 0000.0001) %MON forcing_qnet_mean            =   3.2662460450400E+02
(PID.TID 0000.0001) %MON forcing_qnet_sd              =   2.1609055825416E+02
(PID.TID 0000.0001) %MON forcing_qnet_del2            =   1.1807351971248E-03
(PID.TID 0000.0001) %MON forcing_qsw_max              =   0.0000000000000E+00
(PID.TID 0000.0001) %MON forcing_qsw_min              =  -1.2127805748375E+01
(PID.TID 0000.0001) %MON forcing_qsw_mean             =  -4.0392578519898E-01
(PID.TID 0000.0001) %MON forcing_qsw_sd               =   1.2808345934431E+00
(PID.TID 0000.0001) %MON forcing_qsw_del2             =   4.1248018187040E-06
(PID.TID 0000.0001) %MON forcing_empmr_max            =   2.2505288604765E-04
(PID.TID 0000.0001) %MON forcing_empmr_min            =  -1.1037395143867E-03
(PID.TID 0000.0001) %MON forcing_empmr_mean           =   4.1384576561274E-05
(PID.TID 0000.0001) %MON forcing_empmr_sd             =   1.1019005672758E-04
(PID.TID 0000.0001) %MON forcing_empmr_del2           =   9.5535361166663E-10
(PID.TID 0000.0001) %MON forcing_fu_max               =   5.6944006329673E-01
(PID.TID 0000.0001) %MON forcing_fu_min               =  -1.7652182184359E-01
(PID.TID 0000.0001) %MON forcing_fu_mean              =   9.7743632830039E-02
(PID.TID 0000.0001) %MON forcing_fu_sd                =   1.3486848140706E-01
(PID.TID 0000.0001) %MON forcing_fu_del2              =   1.6988928841382E-07
(PID.TID 0000.0001) %MON forcing_fv_max               =   4.1477199183190E-01
(PID.TID 0000.0001) %MON forcing_fv_min               =  -4.7262388047017E-01
(PID.TID 0000.0001) %MON forcing_fv_mean              =   2.8320115567455E-02
(PID.TID 0000.0001) %MON forcing_fv_sd                =   1.5252751706562E-01
(PID.TID 0000.0001) %MON forcing_fv_del2              =   3.2046845974102E-07
(PID.TID 0000.0001) %MON trAdv_CFL_u_max              =   7.7503908530066E-02
(PID.TID 0000.0001) %MON trAdv_CFL_v_max              =   1.6111071752499E-01
(PID.TID 0000.0001) %MON trAdv_CFL_w_max              =   5.1063224218019E-01
(PID.TID 0000.0001) %MON advcfl_uvel_max              =   7.7503907474781E-02
(PID.TID 0000.0001) %MON advcfl_vvel_max              =   1.6115759452258E-01
(PID.TID 0000.0001) %MON advcfl_wvel_max              =   5.0212170481052E-01
(PID.TID 0000.0001) %MON advcfl_W_hf_max              =   5.1063224218019E-01
(PID.TID 0000.0001) %MON pe_b_mean                    =  -1.1784260214500E-03
(PID.TID 0000.0001) %MON ke_max                       =   2.9373312627184E+00
(PID.TID 0000.0001) %MON ke_mean                      =   2.5879713445778E-03
(PID.TID 0000.0001) %MON ke_vol                       =   4.5818637279720E+16
(PID.TID 0000.0001) %MON vort_r_min                   =  -5.1565667626679E-04
(PID.TID 0000.0001) %MON vort_r_max                   =   7.3965250835447E-04
(PID.TID 0000.0001) %MON vort_a_mean                  =   8.2147622239582E-05
(PID.TID 0000.0001) %MON vort_a_sd                    =   1.0150962418132E-05
(PID.TID 0000.0001) %MON vort_p_mean                  =   8.4848843520798E-05
(PID.TID 0000.0001) %MON vort_p_sd                    =   3.4994753165504E-05
(PID.TID 0000.0001) %MON surfExpan_theta_mean         =  -3.9882776703846E-04
(PID.TID 0000.0001) %MON surfExpan_salt_mean          =  -1.0085049095269E-03
(PID.TID 0000.0001) // =======================================================
(PID.TID 0000.0001) // End MONITOR dynamic field statistics
(PID.TID 0000.0001) // =======================================================
(PID.TID 0000.0001) // =======================================================
(PID.TID 0000.0001) // Begin OBCS MONITOR field statistics
(PID.TID 0000.0001) // =======================================================
(PID.TID 0000.0001) %MON obc_N_vVel_max               =   6.9445057130833E-01
(PID.TID 0000.0001) %MON obc_N_vVel_min               =  -3.2418597803533E-01
(PID.TID 0000.0001) %MON obc_N_vVel_mean              =   1.3447344925231E-02
(PID.TID 0000.0001) %MON obc_N_vVel_sd                =   6.4566341463581E-02
(PID.TID 0000.0001) %MON obc_N_vVel_Int               =   1.9249987840335E+08
(PID.TID 0000.0001) %MON obc_S_vVel_max               =   2.5498895951784E+00
(PID.TID 0000.0001) %MON obc_S_vVel_min               =  -2.6309677804153E-01
(PID.TID 0000.0001) %MON obc_S_vVel_mean              =  -4.2444228596303E-03
(PID.TID 0000.0001) %MON obc_S_vVel_sd                =   3.6332683878914E-02
(PID.TID 0000.0001) %MON obc_S_vVel_Int               =  -1.2921253928519E+08
(PID.TID 0000.0001) %MON obc_N_theta_max              =   1.6389803818919E+01
(PID.TID 0000.0001) %MON obc_N_theta_min              =   1.8895913157701E+00
(PID.TID 0000.0001) %MON obc_N_theta_mean             =   5.1588918920883E+00
(PID.TID 0000.0001) %MON obc_N_theta_sd               =   3.4826224400858E+00
(PID.TID 0000.0001) %MON obc_S_theta_max              =   2.5543708323453E+01
(PID.TID 0000.0001) %MON obc_S_theta_min              =   1.4633003963337E+00
(PID.TID 0000.0001) %MON obc_S_theta_mean             =   5.4595481199164E+00
(PID.TID 0000.0001) %MON obc_S_theta_sd               =   5.3558905817403E+00
(PID.TID 0000.0001) %MON obc_N_salt_max               =   3.5910862747600E+01
(PID.TID 0000.0001) %MON obc_N_salt_min               =   3.3295080101645E+01
(PID.TID 0000.0001) %MON obc_N_salt_mean              =   3.5114560764510E+01
(PID.TID 0000.0001) %MON obc_N_salt_sd                =   3.0984789812930E-01
(PID.TID 0000.0001) %MON obc_S_salt_max               =   3.7318264018012E+01
(PID.TID 0000.0001) %MON obc_S_salt_min               =   3.4844694940461E+01
(PID.TID 0000.0001) %MON obc_S_salt_mean              =   3.5168372075834E+01
(PID.TID 0000.0001) %MON obc_S_salt_sd                =   4.5716689510142E-01
(PID.TID 0000.0001) // =======================================================
(PID.TID 0000.0001) // End OBCS MONITOR field statistics
(PID.TID 0000.0001) // =======================================================
(PID.TID 0000.0001) // =======================================================
(PID.TID 0000.0001) // Begin MONITOR EXF statistics
(PID.TID 0000.0001) // =======================================================
(PID.TID 0000.0001) %MON exf_tsnumber                 =                    12
(PID.TID 0000.0001) %MON exf_time_sec                 =   2.8800000000000E+03
(PID.TID 0000.0001) %MON exf_ustress_max              =   5.6748213533595E-01
(PID.TID 0000.0001) %MON exf_ustress_min              =  -1.7610928834263E-01
(PID.TID 0000.0001) %MON exf_ustress_mean             =   9.7503654112548E-02
(PID.TID 0000.0001) %MON exf_ustress_sd               =   1.3463289027019E-01
(PID.TID 0000.0001) %MON exf_ustress_del2             =   1.9782495044713E-07
(PID.TID 0000.0001) %MON exf_vstress_max              =   4.1576139541921E-01
(PID.TID 0000.0001) %MON exf_vstress_min              =  -4.7243278757258E-01
(PID.TID 0000.0001) %MON exf_vstress_mean             =   2.8520282810817E-02
(PID.TID 0000.0001) %MON exf_vstress_sd               =   1.5234191027486E-01
(PID.TID 0000.0001) %MON exf_vstress_del2             =   3.4900064706861E-07
(PID.TID 0000.0001) %MON exf_hflux_max                =   1.0556634668755E+03
(PID.TID 0000.0001) %MON exf_hflux_min                =  -1.2823043033655E+02
(PID.TID 0000.0001) %MON exf_hflux_mean               =   3.2211432782880E+02
(PID.TID 0000.0001) %MON exf_hflux_sd                 =   2.1000213785471E+02
(PID.TID 0000.0001) %MON exf_hflux_del2               =   8.6001595303008E-02
(PID.TID 0000.0001) %MON exf_sflux_max                =   2.2465659261901E-07
(PID.TID 0000.0001) %MON exf_sflux_min                =  -1.1170186198376E-06
(PID.TID 0000.0001) %MON exf_sflux_mean               =   4.1224607689506E-08
(PID.TID 0000.0001) %MON exf_sflux_sd                 =   1.1083078648491E-07
(PID.TID 0000.0001) %MON exf_sflux_del2               =   2.4416268924418E-11
(PID.TID 0000.0001) %MON exf_uwind_max                =   1.5558774196916E+01
(PID.TID 0000.0001) %MON exf_uwind_min                =  -1.0420347362102E+01
(PID.TID 0000.0001) %MON exf_uwind_mean               =   4.3627285594498E+00
(PID.TID 0000.0001) %MON exf_uwind_sd                 =   5.8950283667740E+00
(PID.TID 0000.0001) %MON exf_uwind_del2               =   1.6354416586395E-03
(PID.TID 0000.0001) %MON exf_vwind_max                =   1.4796163468850E+01
(PID.TID 0000.0001) %MON exf_vwind_min                =  -1.3061588566086E+01
(PID.TID 0000.0001) %MON exf_vwind_mean               =   1.7669527541158E+00
(PID.TID 0000.0001) %MON exf_vwind_sd                 =   7.3430804345716E+00
(PID.TID 0000.0001) %MON exf_vwind_del2               =   1.6812142277118E-03
(PID.TID 0000.0001) %MON exf_wspeed_max               =   1.8289264368516E+01
(PID.TID 0000.0001) %MON exf_wspeed_min               =   5.5158443034444E-02
(PID.TID 0000.0001) %MON exf_wspeed_mean              =   9.9084938999782E+00
(PID.TID 0000.0001) %MON exf_wspeed_sd                =   3.5566080563467E+00
(PID.TID 0000.0001) %MON exf_wspeed_del2              =   2.3453945150696E-03
(PID.TID 0000.0001) %MON exf_atemp_max                =   2.9778820768118E+02
(PID.TID 0000.0001) %MON exf_atemp_min                =   2.7436618777640E+02
(PID.TID 0000.0001) %MON exf_atemp_mean               =   2.8987837569549E+02
(PID.TID 0000.0001) %MON exf_atemp_sd                 =   4.2948818272877E+00
(PID.TID 0000.0001) %MON exf_atemp_del2               =   3.7038172347290E-03
(PID.TID 0000.0001) %MON exf_aqh_max                  =   1.4912429686652E-02
(PID.TID 0000.0001) %MON exf_aqh_min                  =   3.1311636822047E-03
(PID.TID 0000.0001) %MON exf_aqh_mean                 =   9.5839304763939E-03
(PID.TID 0000.0001) %MON exf_aqh_sd                   =   2.2514361720189E-03
(PID.TID 0000.0001) %MON exf_aqh_del2                 =   2.1298661927969E-06
(PID.TID 0000.0001) %MON exf_lwflux_max               =   1.5610562066177E+02
(PID.TID 0000.0001) %MON exf_lwflux_min               =  -3.5700087612342E+00
(PID.TID 0000.0001) %MON exf_lwflux_mean              =   7.2722060312889E+01
(PID.TID 0000.0001) %MON exf_lwflux_sd                =   2.8058231044080E+01
(PID.TID 0000.0001) %MON exf_lwflux_del2              =   1.7286088561612E-02
(PID.TID 0000.0001) %MON exf_evap_max                 =   2.4764534941636E-07
(PID.TID 0000.0001) %MON exf_evap_min                 =  -4.1180331874604E-08
(PID.TID 0000.0001) %MON exf_evap_mean                =   7.9110164292581E-08
(PID.TID 0000.0001) %MON exf_evap_sd                  =   5.5425076402802E-08
(PID.TID 0000.0001) %MON exf_evap_del2                =   2.1377273908500E-11
(PID.TID 0000.0001) %MON exf_precip_max               =   1.1154271045395E-06
(PID.TID 0000.0001) %MON exf_precip_min               =   0.0000000000000E+00
(PID.TID 0000.0001) %MON exf_precip_mean              =   3.6297077031084E-08
(PID.TID 0000.0001) %MON exf_precip_sd                =   8.5110316673169E-08
(PID.TID 0000.0001) %MON exf_precip_del2              =   1.8596781055270E-11
(PID.TID 0000.0001) %MON exf_swflux_max               =   0.0000000000000E+00
(PID.TID 0000.0001) %MON exf_swflux_min               =  -1.1073213944169E+01
(PID.TID 0000.0001) %MON exf_swflux_mean              =  -3.6880180387733E-01
(PID.TID 0000.0001) %MON exf_swflux_sd                =   1.1694576722741E+00
(PID.TID 0000.0001) %MON exf_swflux_del2              =   2.5296789708167E-04
(PID.TID 0000.0001) %MON exf_swdown_max               =   1.2303571049076E+01
(PID.TID 0000.0001) %MON exf_swdown_min               =   0.0000000000000E+00
(PID.TID 0000.0001) %MON exf_swdown_mean              =   4.0977978208592E-01
(PID.TID 0000.0001) %MON exf_swdown_sd                =   1.2993974136379E+00
(PID.TID 0000.0001) %MON exf_swdown_del2              =   2.8107544120186E-04
(PID.TID 0000.0001) %MON exf_lwdown_max               =   4.0298538564923E+02
(PID.TID 0000.0001) %MON exf_lwdown_min               =   2.4862567395729E+02
(PID.TID 0000.0001) %MON exf_lwdown_mean              =   3.4206347898232E+02
(PID.TID 0000.0001) %MON exf_lwdown_sd                =   2.7608944081581E+01
(PID.TID 0000.0001) %MON exf_lwdown_del2              =   7.4686499747138E-02
(PID.TID 0000.0001) %MON exf_apressure_max            =   1.0296684781805E+05
(PID.TID 0000.0001) %MON exf_apressure_min            =   9.9647415185359E+04
(PID.TID 0000.0001) %MON exf_apressure_mean           =   1.0183790172268E+05
(PID.TID 0000.0001) %MON exf_apressure_sd             =   8.3459006794907E+02
(PID.TID 0000.0001) %MON exf_apressure_del2           =   2.2279002454048E+01
(PID.TID 0000.0001) %MON exf_runoff_max               =   4.4374798712073E-08
(PID.TID 0000.0001) %MON exf_runoff_min               =   0.0000000000000E+00
(PID.TID 0000.0001) %MON exf_runoff_mean              =   1.5884795719908E-09
(PID.TID 0000.0001) %MON exf_runoff_sd                =   5.3901959599983E-09
(PID.TID 0000.0001) %MON exf_runoff_del2              =   1.2741189756369E-12
(PID.TID 0000.0001) // =======================================================
(PID.TID 0000.0001) // End MONITOR EXF statistics
(PID.TID 0000.0001) // =======================================================
 cg2d: Sum(rhs),rhsMax =   1.75193148624879E+03  8.18119343223438E-02
(PID.TID 0000.0001)      cg2d_init_res =   1.45564830766734E+00
(PID.TID 0000.0001)      cg2d_iters(min,last) =      -1     312
(PID.TID 0000.0001)      cg2d_last_res =   6.61620601227122E-12
(PID.TID 0000.0001) // =======================================================
(PID.TID 0000.0001) // Begin MONITOR dynamic field statistics
(PID.TID 0000.0001) // =======================================================
(PID.TID 0000.0001) %MON time_tsnumber                =                    13
(PID.TID 0000.0001) %MON time_secondsf                =   3.1200000000000E+03
(PID.TID 0000.0001) %MON dynstat_eta_max              =   7.4780444064317E-01
(PID.TID 0000.0001) %MON dynstat_eta_min              =  -1.1997739194214E+00
(PID.TID 0000.0001) %MON dynstat_eta_mean             =  -5.9578111163973E-02
(PID.TID 0000.0001) %MON dynstat_eta_sd               =   2.6882388389385E-01
(PID.TID 0000.0001) %MON dynstat_eta_del2             =   2.3498403736367E-06
(PID.TID 0000.0001) %MON dynstat_uvel_max             =   1.2716049615806E+00
(PID.TID 0000.0001) %MON dynstat_uvel_min             =  -7.5287541355595E-01
(PID.TID 0000.0001) %MON dynstat_uvel_mean            =   3.6418036429398E-03
(PID.TID 0000.0001) %MON dynstat_uvel_sd              =   5.2396272144790E-02
(PID.TID 0000.0001) %MON dynstat_uvel_del2            =   5.3316725971360E-07
(PID.TID 0000.0001) %MON dynstat_vvel_max             =   2.6099963963822E+00
(PID.TID 0000.0001) %MON dynstat_vvel_min             =  -8.8677201162493E-01
(PID.TID 0000.0001) %MON dynstat_vvel_mean            =  -4.4402497237709E-03
(PID.TID 0000.0001) %MON dynstat_vvel_sd              =   4.9459943282396E-02
(PID.TID 0000.0001) %MON dynstat_vvel_del2            =   4.8959842368426E-07
(PID.TID 0000.0001) %MON dynstat_wvel_max             =   3.6775165735294E-02
(PID.TID 0000.0001) %MON dynstat_wvel_min             =  -3.2471866368998E-02
(PID.TID 0000.0001) %MON dynstat_wvel_mean            =  -1.7147359681995E-05
(PID.TID 0000.0001) %MON dynstat_wvel_sd              =   6.0790374530253E-04
(PID.TID 0000.0001) %MON dynstat_wvel_del2            =   7.1032555763332E-08
(PID.TID 0000.0001) %MON dynstat_theta_max            =   2.6137669998660E+01
(PID.TID 0000.0001) %MON dynstat_theta_min            =   1.4688652337930E+00
(PID.TID 0000.0001) %MON dynstat_theta_mean           =   5.5098713335506E+00
(PID.TID 0000.0001) %MON dynstat_theta_sd             =   4.7732708827149E+00
(PID.TID 0000.0001) %MON dynstat_theta_del2           =   4.0329918403159E-06
(PID.TID 0000.0001) %MON dynstat_salt_max             =   3.9147874257803E+01
(PID.TID 0000.0001) %MON dynstat_salt_min             =   3.3091432791500E+01
(PID.TID 0000.0001) %MON dynstat_salt_mean            =   3.5173367183439E+01
(PID.TID 0000.0001) %MON dynstat_salt_sd              =   3.7892036459600E-01
(PID.TID 0000.0001) %MON dynstat_salt_del2            =   5.2976778708349E-07
(PID.TID 0000.0001) %MON dynstat_sst_max              =   2.6127151243056E+01
(PID.TID 0000.0001) %MON dynstat_sst_min              =   3.8923380978415E+00
(PID.TID 0000.0001) %MON dynstat_sst_mean             =   1.9633220534190E+01
(PID.TID 0000.0001) %MON dynstat_sst_sd               =   3.6356581015442E+00
(PID.TID 0000.0001) %MON dynstat_sst_del2             =   1.9306344331141E-05
(PID.TID 0000.0001) %MON dynstat_sss_max              =   3.7335597309710E+01
(PID.TID 0000.0001) %MON dynstat_sss_min              =   3.3091432791500E+01
(PID.TID 0000.0001) %MON dynstat_sss_mean             =   3.5868592914907E+01
(PID.TID 0000.0001) %MON dynstat_sss_sd               =   4.8745131535377E-01
(PID.TID 0000.0001) %MON dynstat_sss_del2             =   4.9116024028237E-06
(PID.TID 0000.0001) %MON forcing_qnet_max             =   1.0714550770652E+03
(PID.TID 0000.0001) %MON forcing_qnet_min             =  -1.8593699134166E+02
(PID.TID 0000.0001) %MON forcing_qnet_mean            =   3.2641706244969E+02
(PID.TID 0000.0001) %MON forcing_qnet_sd              =   2.1585262084521E+02
(PID.TID 0000.0001) %MON forcing_qnet_del2            =   1.1812728620934E-03
(PID.TID 0000.0001) %MON forcing_qsw_max              =   0.0000000000000E+00
(PID.TID 0000.0001) %MON forcing_qsw_min              =  -1.1073213944169E+01
(PID.TID 0000.0001) %MON forcing_qsw_mean             =  -3.6880180387733E-01
(PID.TID 0000.0001) %MON forcing_qsw_sd               =   1.1694576722741E+00
(PID.TID 0000.0001) %MON forcing_qsw_del2             =   3.7661233996862E-06
(PID.TID 0000.0001) %MON forcing_empmr_max            =   2.2465659261901E-04
(PID.TID 0000.0001) %MON forcing_empmr_min            =  -1.1170186198376E-03
(PID.TID 0000.0001) %MON forcing_empmr_mean           =   4.1224607689506E-05
(PID.TID 0000.0001) %MON forcing_empmr_sd             =   1.1083078648491E-04
(PID.TID 0000.0001) %MON forcing_empmr_del2           =   9.7054818654519E-10
(PID.TID 0000.0001) %MON forcing_fu_max               =   5.6742896529539E-01
(PID.TID 0000.0001) %MON forcing_fu_min               =  -1.7609193938797E-01
(PID.TID 0000.0001) %MON forcing_fu_mean              =   9.7609191591736E-02
(PID.TID 0000.0001) %MON forcing_fu_sd                =   1.3466107880571E-01
(PID.TID 0000.0001) %MON forcing_fu_del2              =   1.6992912685450E-07
(PID.TID 0000.0001) %MON forcing_fv_max               =   4.1572275773725E-01
(PID.TID 0000.0001) %MON forcing_fv_min               =  -4.7242741817590E-01
(PID.TID 0000.0001) %MON forcing_fv_mean              =   2.8453433394396E-02
(PID.TID 0000.0001) %MON forcing_fv_sd                =   1.5234952990392E-01
(PID.TID 0000.0001) %MON forcing_fv_del2              =   3.2287565081792E-07
(PID.TID 0000.0001) %MON trAdv_CFL_u_max              =   7.7149243117168E-02
(PID.TID 0000.0001) %MON trAdv_CFL_v_max              =   1.6490847013686E-01
(PID.TID 0000.0001) %MON trAdv_CFL_w_max              =   5.1703951252021E-01
(PID.TID 0000.0001) %MON advcfl_uvel_max              =   7.7149242066711E-02
(PID.TID 0000.0001) %MON advcfl_vvel_max              =   1.6495645213381E-01
(PID.TID 0000.0001) %MON advcfl_wvel_max              =   5.0842218731154E-01
(PID.TID 0000.0001) %MON advcfl_W_hf_max              =   5.1703951252021E-01
(PID.TID 0000.0001) %MON pe_b_mean                    =  -1.3476536264220E-03
(PID.TID 0000.0001) %MON ke_max                       =   3.0850414435023E+00
(PID.TID 0000.0001) %MON ke_mean                      =   2.5930670382293E-03
(PID.TID 0000.0001) %MON ke_vol                       =   4.5818637279720E+16
(PID.TID 0000.0001) %MON vort_r_min                   =  -5.1491783739445E-04
(PID.TID 0000.0001) %MON vort_r_max                   =   7.5984559911890E-04
(PID.TID 0000.0001) %MON vort_a_mean                  =   8.2147621412605E-05
(PID.TID 0000.0001) %MON vort_a_sd                    =   1.0154267942901E-05
(PID.TID 0000.0001) %MON vort_p_mean                  =   8.4848842666628E-05
(PID.TID 0000.0001) %MON vort_p_sd                    =   3.4998837554450E-05
(PID.TID 0000.0001) %MON surfExpan_theta_mean         =  -4.3867846015714E-04
(PID.TID 0000.0001) %MON surfExpan_salt_mean          =  -1.0717961525149E-03
(PID.TID 0000.0001) // =======================================================
(PID.TID 0000.0001) // End MONITOR dynamic field statistics
(PID.TID 0000.0001) // =======================================================
(PID.TID 0000.0001) // =======================================================
(PID.TID 0000.0001) // Begin OBCS MONITOR field statistics
(PID.TID 0000.0001) // =======================================================
(PID.TID 0000.0001) %MON obc_N_vVel_max               =   6.9426531208340E-01
(PID.TID 0000.0001) %MON obc_N_vVel_min               =  -3.2452656104798E-01
(PID.TID 0000.0001) %MON obc_N_vVel_mean              =   1.3381664447098E-02
(PID.TID 0000.0001) %MON obc_N_vVel_sd                =   6.4543608601926E-02
(PID.TID 0000.0001) %MON obc_N_vVel_Int               =   1.9155965681133E+08
(PID.TID 0000.0001) %MON obc_S_vVel_max               =   2.6099963963822E+00
(PID.TID 0000.0001) %MON obc_S_vVel_min               =  -2.6315746208509E-01
(PID.TID 0000.0001) %MON obc_S_vVel_mean              =  -4.9235880448266E-03
(PID.TID 0000.0001) %MON obc_S_vVel_sd                =   3.6409914101142E-02
(PID.TID 0000.0001) %MON obc_S_vVel_Int               =  -1.4988829687946E+08
(PID.TID 0000.0001) %MON obc_N_theta_max              =   1.6389715716732E+01
(PID.TID 0000.0001) %MON obc_N_theta_min              =   1.8895913648355E+00
(PID.TID 0000.0001) %MON obc_N_theta_mean             =   5.1588845079383E+00
(PID.TID 0000.0001) %MON obc_N_theta_sd               =   3.4826131499335E+00
(PID.TID 0000.0001) %MON obc_S_theta_max              =   2.5543605574674E+01
(PID.TID 0000.0001) %MON obc_S_theta_min              =   1.4633007926210E+00
(PID.TID 0000.0001) %MON obc_S_theta_mean             =   5.4595473148918E+00
(PID.TID 0000.0001) %MON obc_S_theta_sd               =   5.3558867108083E+00
(PID.TID 0000.0001) %MON obc_N_salt_max               =   3.5910862339236E+01
(PID.TID 0000.0001) %MON obc_N_salt_min               =   3.3295085604278E+01
(PID.TID 0000.0001) %MON obc_N_salt_mean              =   3.5114560468523E+01
(PID.TID 0000.0001) %MON obc_N_salt_sd                =   3.0984777910560E-01
(PID.TID 0000.0001) %MON obc_S_salt_max               =   3.7318257133628E+01
(PID.TID 0000.0001) %MON obc_S_salt_min               =   3.4844694992682E+01
(PID.TID 0000.0001) %MON obc_S_salt_mean              =   3.5168372003918E+01
(PID.TID 0000.0001) %MON obc_S_salt_sd                =   4.5716654409228E-01
(PID.TID 0000.0001) // =======================================================
(PID.TID 0000.0001) // End OBCS MONITOR field statistics
(PID.TID 0000.0001) // =======================================================
(PID.TID 0000.0001) // =======================================================
(PID.TID 0000.0001) // Begin MONITOR EXF statistics
(PID.TID 0000.0001) // =======================================================
(PID.TID 0000.0001) %MON exf_tsnumber                 =                    13
(PID.TID 0000.0001) %MON exf_time_sec                 =   3.1200000000000E+03
(PID.TID 0000.0001) %MON exf_ustress_max              =   5.6548461876098E-01
(PID.TID 0000.0001) %MON exf_ustress_min              =  -1.7569327428775E-01
(PID.TID 0000.0001) %MON exf_ustress_mean             =   9.7376746253154E-02
(PID.TID 0000.0001) %MON exf_ustress_sd               =   1.3444306780494E-01
(PID.TID 0000.0001) %MON exf_ustress_del2             =   1.9812880400411E-07
(PID.TID 0000.0001) %MON exf_vstress_max              =   4.1668972642569E-01
(PID.TID 0000.0001) %MON exf_vstress_min              =  -4.7223789070650E-01
(PID.TID 0000.0001) %MON exf_vstress_mean             =   2.8656952531568E-02
(PID.TID 0000.0001) %MON exf_vstress_sd               =   1.5218292577512E-01
(PID.TID 0000.0001) %MON exf_vstress_del2             =   3.5243041371924E-07
(PID.TID 0000.0001) %MON exf_hflux_max                =   1.0544916399481E+03
(PID.TID 0000.0001) %MON exf_hflux_min                =  -1.2743383672243E+02
(PID.TID 0000.0001) %MON exf_hflux_mean               =   3.2193061196186E+02
(PID.TID 0000.0001) %MON exf_hflux_sd                 =   2.0976369962193E+02
(PID.TID 0000.0001) %MON exf_hflux_del2               =   8.5930082594465E-02
(PID.TID 0000.0001) %MON exf_sflux_max                =   2.2426655292526E-07
(PID.TID 0000.0001) %MON exf_sflux_min                =  -1.1302737971487E-06
(PID.TID 0000.0001) %MON exf_sflux_mean               =   4.1067963804980E-08
(PID.TID 0000.0001) %MON exf_sflux_sd                 =   1.1149650151278E-07
(PID.TID 0000.0001) %MON exf_sflux_del2               =   2.4518283008311E-11
(PID.TID 0000.0001) %MON exf_uwind_max                =   1.5552214355776E+01
(PID.TID 0000.0001) %MON exf_uwind_min                =  -1.0403851913412E+01
(PID.TID 0000.0001) %MON exf_uwind_mean               =   4.3617315172050E+00
(PID.TID 0000.0001) %MON exf_uwind_sd                 =   5.8927992271798E+00
(PID.TID 0000.0001) %MON exf_uwind_del2               =   1.6351718120839E-03
(PID.TID 0000.0001) %MON exf_vwind_max                =   1.4778785064468E+01
(PID.TID 0000.0001) %MON exf_vwind_min                =  -1.3053384142692E+01
(PID.TID 0000.0001) %MON exf_vwind_mean               =   1.7728996487119E+00
(PID.TID 0000.0001) %MON exf_vwind_sd                 =   7.3383951444773E+00
(PID.TID 0000.0001) %MON exf_vwind_del2               =   1.6805063432901E-03
(PID.TID 0000.0001) %MON exf_wspeed_max               =   1.8275580416202E+01
(PID.TID 0000.0001) %MON exf_wspeed_min               =   3.9848077823943E-02
(PID.TID 0000.0001) %MON exf_wspeed_mean              =   9.9049562867840E+00
(PID.TID 0000.0001) %MON exf_wspeed_sd                =   3.5548336076134E+00
(PID.TID 0000.0001) %MON exf_wspeed_del2              =   2.3446993906287E-03
(PID.TID 0000.0001) %MON exf_atemp_max                =   2.9778775365334E+02
(PID.TID 0000.0001) %MON exf_atemp_min                =   2.7437068151422E+02
(PID.TID 0000.0001) %MON exf_atemp_mean               =   2.8987844920861E+02
(PID.TID 0000.0001) %MON exf_atemp_sd                 =   4.2917229668201E+00
(PID.TID 0000.0001) %MON exf_atemp_del2               =   3.7038092807008E-03
(PID.TID 0000.0001) %MON exf_aqh_max                  =   1.4934034345055E-02
(PID.TID 0000.0001) %MON exf_aqh_min                  =   3.1387107731865E-03
(PID.TID 0000.0001) %MON exf_aqh_mean                 =   9.5835472938686E-03
(PID.TID 0000.0001) %MON exf_aqh_sd                   =   2.2494372597615E-03
(PID.TID 0000.0001) %MON exf_aqh_del2                 =   2.1297500054435E-06
(PID.TID 0000.0001) %MON exf_lwflux_max               =   1.5589539293959E+02
(PID.TID 0000.0001) %MON exf_lwflux_min               =  -4.2299386701605E+00
(PID.TID 0000.0001) %MON exf_lwflux_mean              =   7.2716924033572E+01
(PID.TID 0000.0001) %MON exf_lwflux_sd                =   2.8099100988479E+01
(PID.TID 0000.0001) %MON exf_lwflux_del2              =   1.7287100886581E-02
(PID.TID 0000.0001) %MON exf_evap_max                 =   2.4738652485955E-07
(PID.TID 0000.0001) %MON exf_evap_min                 =  -4.1043736123400E-08
(PID.TID 0000.0001) %MON exf_evap_mean                =   7.9048378588268E-08
(PID.TID 0000.0001) %MON exf_evap_sd                  =   5.5351952524993E-08
(PID.TID 0000.0001) %MON exf_evap_del2                =   2.1356114883167E-11
(PID.TID 0000.0001) %MON exf_precip_max               =   1.1285373926313E-06
(PID.TID 0000.0001) %MON exf_precip_min               =   0.0000000000000E+00
(PID.TID 0000.0001) %MON exf_precip_mean              =   3.6391935211297E-08
(PID.TID 0000.0001) %MON exf_precip_sd                =   8.5882955754695E-08
(PID.TID 0000.0001) %MON exf_precip_del2              =   1.8742849921745E-11
(PID.TID 0000.0001) %MON exf_swflux_max               =   0.0000000000000E+00
(PID.TID 0000.0001) %MON exf_swflux_min               =  -1.0018622139962E+01
(PID.TID 0000.0001) %MON exf_swflux_mean              =  -3.3367782255568E-01
(PID.TID 0000.0001) %MON exf_swflux_sd                =   1.0580807511051E+00
(PID.TID 0000.0001) %MON exf_swflux_del2              =   2.2887571640723E-04
(PID.TID 0000.0001) %MON exf_swdown_max               =   1.1131802377736E+01
(PID.TID 0000.0001) %MON exf_swdown_min               =   0.0000000000000E+00
(PID.TID 0000.0001) %MON exf_swdown_mean              =   3.7075313617298E-01
(PID.TID 0000.0001) %MON exf_swdown_sd                =   1.1756452790057E+00
(PID.TID 0000.0001) %MON exf_swdown_del2              =   2.5430635156359E-04
(PID.TID 0000.0001) %MON exf_lwdown_max               =   4.0308737896884E+02
(PID.TID 0000.0001) %MON exf_lwdown_min               =   2.4856574378679E+02
(PID.TID 0000.0001) %MON exf_lwdown_mean              =   3.4206445706950E+02
(PID.TID 0000.0001) %MON exf_lwdown_sd                =   2.7634641330421E+01
(PID.TID 0000.0001) %MON exf_lwdown_del2              =   7.4687599111920E-02
(PID.TID 0000.0001) %MON exf_apressure_max            =   1.0296432257964E+05
(PID.TID 0000.0001) %MON exf_apressure_min            =   9.9646253651967E+04
(PID.TID 0000.0001) %MON exf_apressure_mean           =   1.0183626801493E+05
(PID.TID 0000.0001) %MON exf_apressure_sd             =   8.3405610233006E+02
(PID.TID 0000.0001) %MON exf_apressure_del2           =   2.2278654497962E+01
(PID.TID 0000.0001) %MON exf_runoff_max               =   4.4374798712073E-08
(PID.TID 0000.0001) %MON exf_runoff_min               =   0.0000000000000E+00
(PID.TID 0000.0001) %MON exf_runoff_mean              =   1.5884795719908E-09
(PID.TID 0000.0001) %MON exf_runoff_sd                =   5.3901959599983E-09
(PID.TID 0000.0001) %MON exf_runoff_del2              =   1.2741189756369E-12
(PID.TID 0000.0001) // =======================================================
(PID.TID 0000.0001) // End MONITOR EXF statistics
(PID.TID 0000.0001) // =======================================================
 cg2d: Sum(rhs),rhsMax =   1.97721784889041E+03  8.14956682712586E-02
(PID.TID 0000.0001)      cg2d_init_res =   1.44007005598303E+00
(PID.TID 0000.0001)      cg2d_iters(min,last) =      -1     312
(PID.TID 0000.0001)      cg2d_last_res =   6.39350737127610E-12
(PID.TID 0000.0001) // =======================================================
(PID.TID 0000.0001) // Begin MONITOR dynamic field statistics
(PID.TID 0000.0001) // =======================================================
(PID.TID 0000.0001) %MON time_tsnumber                =                    14
(PID.TID 0000.0001) %MON time_secondsf                =   3.3600000000000E+03
(PID.TID 0000.0001) %MON dynstat_eta_max              =   7.7082394185913E-01
(PID.TID 0000.0001) %MON dynstat_eta_min              =  -1.3211274147601E+00
(PID.TID 0000.0001) %MON dynstat_eta_mean             =  -6.7239447273600E-02
(PID.TID 0000.0001) %MON dynstat_eta_sd               =   2.7817746523373E-01
(PID.TID 0000.0001) %MON dynstat_eta_del2             =   2.4111475502158E-06
(PID.TID 0000.0001) %MON dynstat_uvel_max             =   1.2669908970513E+00
(PID.TID 0000.0001) %MON dynstat_uvel_min             =  -8.3971423362541E-01
(PID.TID 0000.0001) %MON dynstat_uvel_mean            =   3.5495383741493E-03
(PID.TID 0000.0001) %MON dynstat_uvel_sd              =   5.2415045965383E-02
(PID.TID 0000.0001) %MON dynstat_uvel_del2            =   5.4070278832585E-07
(PID.TID 0000.0001) %MON dynstat_vvel_max             =   2.6695680775817E+00
(PID.TID 0000.0001) %MON dynstat_vvel_min             =  -8.8497031554794E-01
(PID.TID 0000.0001) %MON dynstat_vvel_mean            =  -4.6342769749836E-03
(PID.TID 0000.0001) %MON dynstat_vvel_sd              =   4.9525175988522E-02
(PID.TID 0000.0001) %MON dynstat_vvel_del2            =   4.9747649883874E-07
(PID.TID 0000.0001) %MON dynstat_wvel_max             =   3.8122333097377E-02
(PID.TID 0000.0001) %MON dynstat_wvel_min             =  -3.2899352075805E-02
(PID.TID 0000.0001) %MON dynstat_wvel_mean            =  -1.8215462753851E-05
(PID.TID 0000.0001) %MON dynstat_wvel_sd              =   6.0941910895067E-04
(PID.TID 0000.0001) %MON dynstat_wvel_del2            =   7.0421199330525E-08
(PID.TID 0000.0001) %MON dynstat_theta_max            =   2.6138627993560E+01
(PID.TID 0000.0001) %MON dynstat_theta_min            =   1.4688654264460E+00
(PID.TID 0000.0001) %MON dynstat_theta_mean           =   5.5098836609259E+00
(PID.TID 0000.0001) %MON dynstat_theta_sd             =   4.7732696264778E+00
(PID.TID 0000.0001) %MON dynstat_theta_del2           =   4.0338972738018E-06
(PID.TID 0000.0001) %MON dynstat_salt_max             =   3.9143458463994E+01
(PID.TID 0000.0001) %MON dynstat_salt_min             =   3.3091575099718E+01
(PID.TID 0000.0001) %MON dynstat_salt_mean            =   3.5173367638221E+01
(PID.TID 0000.0001) %MON dynstat_salt_sd              =   3.7892178994308E-01
(PID.TID 0000.0001) %MON dynstat_salt_del2            =   5.3182655946707E-07
(PID.TID 0000.0001) %MON dynstat_sst_max              =   2.6127797389974E+01
(PID.TID 0000.0001) %MON dynstat_sst_min              =   3.8763203868611E+00
(PID.TID 0000.0001) %MON dynstat_sst_mean             =   1.9632496578913E+01
(PID.TID 0000.0001) %MON dynstat_sst_sd               =   3.6355529272904E+00
(PID.TID 0000.0001) %MON dynstat_sst_del2             =   1.9359397312905E-05
(PID.TID 0000.0001) %MON dynstat_sss_max              =   3.7335659814605E+01
(PID.TID 0000.0001) %MON dynstat_sss_min              =   3.3091575099718E+01
(PID.TID 0000.0001) %MON dynstat_sss_mean             =   3.5868622158995E+01
(PID.TID 0000.0001) %MON dynstat_sss_sd               =   4.8746261689414E-01
(PID.TID 0000.0001) %MON dynstat_sss_del2             =   4.9061230148654E-06
(PID.TID 0000.0001) %MON forcing_qnet_max             =   1.0702423770089E+03
(PID.TID 0000.0001) %MON forcing_qnet_min             =  -1.8781540182111E+02
(PID.TID 0000.0001) %MON forcing_qnet_mean            =   3.2622114597997E+02
(PID.TID 0000.0001) %MON forcing_qnet_sd              =   2.1562555544792E+02
(PID.TID 0000.0001) %MON forcing_qnet_del2            =   1.1814413900449E-03
(PID.TID 0000.0001) %MON forcing_qsw_max              =   0.0000000000000E+00
(PID.TID 0000.0001) %MON forcing_qsw_min              =  -1.0018622139962E+01
(PID.TID 0000.0001) %MON forcing_qsw_mean             =  -3.3367782255568E-01
(PID.TID 0000.0001) %MON forcing_qsw_sd               =   1.0580807511051E+00
(PID.TID 0000.0001) %MON forcing_qsw_del2             =   3.4074449806685E-06
(PID.TID 0000.0001) %MON forcing_empmr_max            =   2.2426655292526E-04
(PID.TID 0000.0001) %MON forcing_empmr_min            =  -1.1302737971487E-03
(PID.TID 0000.0001) %MON forcing_empmr_mean           =   4.1067963804980E-05
(PID.TID 0000.0001) %MON forcing_empmr_sd             =   1.1149650151278E-04
(PID.TID 0000.0001) %MON forcing_empmr_del2           =   9.8628928138054E-10
(PID.TID 0000.0001) %MON forcing_fu_max               =   5.6544565968518E-01
(PID.TID 0000.0001) %MON forcing_fu_min               =  -1.7567702045989E-01
(PID.TID 0000.0001) %MON forcing_fu_mean              =   9.7482065240852E-02
(PID.TID 0000.0001) %MON forcing_fu_sd                =   1.3447116584092E-01
(PID.TID 0000.0001) %MON forcing_fu_del2              =   1.6967525758746E-07
(PID.TID 0000.0001) %MON forcing_fv_max               =   4.1666381687877E-01
(PID.TID 0000.0001) %MON forcing_fv_min               =  -4.7223449813828E-01
(PID.TID 0000.0001) %MON forcing_fv_mean              =   2.8589966272336E-02
(PID.TID 0000.0001) %MON forcing_fv_sd                =   1.5219004319016E-01
(PID.TID 0000.0001) %MON forcing_fv_del2              =   3.2491042932978E-07
(PID.TID 0000.0001) %MON trAdv_CFL_u_max              =   7.6869304302145E-02
(PID.TID 0000.0001) %MON trAdv_CFL_v_max              =   1.6867241204257E-01
(PID.TID 0000.0001) %MON trAdv_CFL_w_max              =   5.2093084776581E-01
(PID.TID 0000.0001) %MON advcfl_uvel_max              =   7.6869303255500E-02
(PID.TID 0000.0001) %MON advcfl_vvel_max              =   1.6872148920127E-01
(PID.TID 0000.0001) %MON advcfl_wvel_max              =   5.1224866696971E-01
(PID.TID 0000.0001) %MON advcfl_W_hf_max              =   5.2093084776581E-01
(PID.TID 0000.0001) %MON pe_b_mean                    =  -1.5269164117252E-03
(PID.TID 0000.0001) %MON ke_max                       =   3.2381326049256E+00
(PID.TID 0000.0001) %MON ke_mean                      =   2.5977934714872E-03
(PID.TID 0000.0001) %MON ke_vol                       =   4.5818637279720E+16
(PID.TID 0000.0001) %MON vort_r_min                   =  -5.1369956706477E-04
(PID.TID 0000.0001) %MON vort_r_max                   =   7.7662473910290E-04
(PID.TID 0000.0001) %MON vort_a_mean                  =   8.2147620580608E-05
(PID.TID 0000.0001) %MON vort_a_sd                    =   1.0157502765139E-05
(PID.TID 0000.0001) %MON vort_p_mean                  =   8.4848841807272E-05
(PID.TID 0000.0001) %MON vort_p_sd                    =   3.5003208098993E-05
(PID.TID 0000.0001) %MON surfExpan_theta_mean         =  -4.7706139367170E-04
(PID.TID 0000.0001) %MON surfExpan_salt_mean          =  -1.1335496304758E-03
(PID.TID 0000.0001) // =======================================================
(PID.TID 0000.0001) // End MONITOR dynamic field statistics
(PID.TID 0000.0001) // =======================================================
(PID.TID 0000.0001) // =======================================================
(PID.TID 0000.0001) // Begin OBCS MONITOR field statistics
(PID.TID 0000.0001) // =======================================================
(PID.TID 0000.0001) %MON obc_N_vVel_max               =   6.9406954362584E-01
(PID.TID 0000.0001) %MON obc_N_vVel_min               =  -3.2488788876920E-01
(PID.TID 0000.0001) %MON obc_N_vVel_mean              =   1.3301629419791E-02
(PID.TID 0000.0001) %MON obc_N_vVel_sd                =   6.4519750541269E-02
(PID.TID 0000.0001) %MON obc_N_vVel_Int               =   1.9041394863546E+08
(PID.TID 0000.0001) %MON obc_S_vVel_max               =   2.6695680775817E+00
(PID.TID 0000.0001) %MON obc_S_vVel_min               =  -2.6321008674783E-01
(PID.TID 0000.0001) %MON obc_S_vVel_mean              =  -5.5958545034757E-03
(PID.TID 0000.0001) %MON obc_S_vVel_sd                =   3.6491707287936E-02
(PID.TID 0000.0001) %MON obc_S_vVel_Int               =  -1.7035403723358E+08
(PID.TID 0000.0001) %MON obc_N_theta_max              =   1.6389627614545E+01
(PID.TID 0000.0001) %MON obc_N_theta_min              =   1.8895914139009E+00
(PID.TID 0000.0001) %MON obc_N_theta_mean             =   5.1588771237882E+00
(PID.TID 0000.0001) %MON obc_N_theta_sd               =   3.4826038600191E+00
(PID.TID 0000.0001) %MON obc_S_theta_max              =   2.5543502825894E+01
(PID.TID 0000.0001) %MON obc_S_theta_min              =   1.4633011889082E+00
(PID.TID 0000.0001) %MON obc_S_theta_mean             =   5.4595465098672E+00
(PID.TID 0000.0001) %MON obc_S_theta_sd               =   5.3558828399123E+00
(PID.TID 0000.0001) %MON obc_N_salt_max               =   3.5910861930873E+01
(PID.TID 0000.0001) %MON obc_N_salt_min               =   3.3295091106912E+01
(PID.TID 0000.0001) %MON obc_N_salt_mean              =   3.5114560172537E+01
(PID.TID 0000.0001) %MON obc_N_salt_sd                =   3.0984766009526E-01
(PID.TID 0000.0001) %MON obc_S_salt_max               =   3.7318250249244E+01
(PID.TID 0000.0001) %MON obc_S_salt_min               =   3.4844695044902E+01
(PID.TID 0000.0001) %MON obc_S_salt_mean              =   3.5168371932001E+01
(PID.TID 0000.0001) %MON obc_S_salt_sd                =   4.5716619308913E-01
(PID.TID 0000.0001) // =======================================================
(PID.TID 0000.0001) // End OBCS MONITOR field statistics
(PID.TID 0000.0001) // =======================================================
(PID.TID 0000.0001) // =======================================================
(PID.TID 0000.0001) // Begin MONITOR EXF statistics
(PID.TID 0000.0001) // =======================================================
(PID.TID 0000.0001) %MON exf_tsnumber                 =                    14
(PID.TID 0000.0001) %MON exf_time_sec                 =   3.3600000000000E+03
(PID.TID 0000.0001) %MON exf_ustress_max              =   5.6351430171453E-01
(PID.TID 0000.0001) %MON exf_ustress_min              =  -1.7528880290882E-01
(PID.TID 0000.0001) %MON exf_ustress_mean             =   9.7256872495656E-02
(PID.TID 0000.0001) %MON exf_ustress_sd               =   1.3427003498976E-01
(PID.TID 0000.0001) %MON exf_ustress_del2             =   1.9866016130497E-07
(PID.TID 0000.0001) %MON exf_vstress_max              =   4.1761792019600E-01
(PID.TID 0000.0001) %MON exf_vstress_min              =  -4.7204643845500E-01
(PID.TID 0000.0001) %MON exf_vstress_mean             =   2.8796655440505E-02
(PID.TID 0000.0001) %MON exf_vstress_sd               =   1.5204132384866E-01
(PID.TID 0000.0001) %MON exf_vstress_del2             =   3.5612370859440E-07
(PID.TID 0000.0001) %MON exf_hflux_max                =   1.0533468988899E+03
(PID.TID 0000.0001) %MON exf_hflux_min                =  -1.2664284936083E+02
(PID.TID 0000.0001) %MON exf_hflux_mean               =   3.2175748749604E+02
(PID.TID 0000.0001) %MON exf_hflux_sd                 =   2.0953512430320E+02
(PID.TID 0000.0001) %MON exf_hflux_del2               =   8.5862297867315E-02
(PID.TID 0000.0001) %MON exf_sflux_max                =   2.2388149939030E-07
(PID.TID 0000.0001) %MON exf_sflux_min                =  -1.1435077123795E-06
(PID.TID 0000.0001) %MON exf_sflux_mean               =   4.0914429582706E-08
(PID.TID 0000.0001) %MON exf_sflux_sd                 =   1.1218667093008E-07
(PID.TID 0000.0001) %MON exf_sflux_del2               =   2.4625501187031E-11
(PID.TID 0000.0001) %MON exf_uwind_max                =   1.5545767200729E+01
(PID.TID 0000.0001) %MON exf_uwind_min                =  -1.0387546123913E+01
(PID.TID 0000.0001) %MON exf_uwind_mean               =   4.3607634920438E+00
(PID.TID 0000.0001) %MON exf_uwind_sd                 =   5.8908102459466E+00
(PID.TID 0000.0001) %MON exf_uwind_del2               =   1.6349528665272E-03
(PID.TID 0000.0001) %MON exf_vwind_max                =   1.4762125220606E+01
(PID.TID 0000.0001) %MON exf_vwind_min                =  -1.3045051461264E+01
(PID.TID 0000.0001) %MON exf_vwind_mean               =   1.7788363673054E+00
(PID.TID 0000.0001) %MON exf_vwind_sd                 =   7.3340343975521E+00
(PID.TID 0000.0001) %MON exf_vwind_del2               =   1.6798743619056E-03
(PID.TID 0000.0001) %MON exf_wspeed_max               =   1.8262100686933E+01
(PID.TID 0000.0001) %MON exf_wspeed_min               =   6.3960941074987E-02
(PID.TID 0000.0001) %MON exf_wspeed_mean              =   9.9017254771672E+00
(PID.TID 0000.0001) %MON exf_wspeed_sd                =   3.5533161311983E+00
(PID.TID 0000.0001) %MON exf_wspeed_del2              =   2.3440939941196E-03
(PID.TID 0000.0001) %MON exf_atemp_max                =   2.9778729962550E+02
(PID.TID 0000.0001) %MON exf_atemp_min                =   2.7437517525204E+02
(PID.TID 0000.0001) %MON exf_atemp_mean               =   2.8987852272173E+02
(PID.TID 0000.0001) %MON exf_atemp_sd                 =   4.2885983493589E+00
(PID.TID 0000.0001) %MON exf_atemp_del2               =   3.7038035079061E-03
(PID.TID 0000.0001) %MON exf_aqh_max                  =   1.4955639003459E-02
(PID.TID 0000.0001) %MON exf_aqh_min                  =   3.1454102469503E-03
(PID.TID 0000.0001) %MON exf_aqh_mean                 =   9.5831641113433E-03
(PID.TID 0000.0001) %MON exf_aqh_sd                   =   2.2474867351301E-03
(PID.TID 0000.0001) %MON exf_aqh_del2                 =   2.1296364706593E-06
(PID.TID 0000.0001) %MON exf_lwflux_max               =   1.5568527975958E+02
(PID.TID 0000.0001) %MON exf_lwflux_min               =  -4.8891929982271E+00
(PID.TID 0000.0001) %MON exf_lwflux_mean              =   7.2711954469100E+01
(PID.TID 0000.0001) %MON exf_lwflux_sd                =   2.8142895648093E+01
(PID.TID 0000.0001) %MON exf_lwflux_del2              =   1.7288405904839E-02
(PID.TID 0000.0001) %MON exf_evap_max                 =   2.4713456519011E-07
(PID.TID 0000.0001) %MON exf_evap_min                 =  -4.0908680156025E-08
(PID.TID 0000.0001) %MON exf_evap_mean                =   7.8989702546207E-08
(PID.TID 0000.0001) %MON exf_evap_sd                  =   5.5281627108799E-08
(PID.TID 0000.0001) %MON exf_evap_del2                =   2.1335998846563E-11
(PID.TID 0000.0001) %MON exf_precip_max               =   1.1416476807232E-06
(PID.TID 0000.0001) %MON exf_precip_min               =   0.0000000000000E+00
(PID.TID 0000.0001) %MON exf_precip_mean              =   3.6486793391510E-08
(PID.TID 0000.0001) %MON exf_precip_sd                =   8.6682218369252E-08
(PID.TID 0000.0001) %MON exf_precip_del2              =   1.8894154995296E-11
(PID.TID 0000.0001) %MON exf_swflux_max               =   0.0000000000000E+00
(PID.TID 0000.0001) %MON exf_swflux_min               =  -8.9640303357555E+00
(PID.TID 0000.0001) %MON exf_swflux_mean              =  -2.9855384123403E-01
(PID.TID 0000.0001) %MON exf_swflux_sd                =   9.4670382993619E-01
(PID.TID 0000.0001) %MON exf_swflux_del2              =   2.0478353573278E-04
(PID.TID 0000.0001) %MON exf_swdown_max               =   9.9600337063950E+00
(PID.TID 0000.0001) %MON exf_swdown_min               =   0.0000000000000E+00
(PID.TID 0000.0001) %MON exf_swdown_mean              =   3.3172649026003E-01
(PID.TID 0000.0001) %MON exf_swdown_sd                =   1.0518931443735E+00
(PID.TID 0000.0001) %MON exf_swdown_del2              =   2.2753726192531E-04
(PID.TID 0000.0001) %MON exf_lwdown_max               =   4.0318937228845E+02
(PID.TID 0000.0001) %MON exf_lwdown_min               =   2.4850581361628E+02
(PID.TID 0000.0001) %MON exf_lwdown_mean              =   3.4206543515668E+02
(PID.TID 0000.0001) %MON exf_lwdown_sd                =   2.7663489099576E+01
(PID.TID 0000.0001) %MON exf_lwdown_del2              =   7.4688761015922E-02
(PID.TID 0000.0001) %MON exf_apressure_max            =   1.0296179734123E+05
(PID.TID 0000.0001) %MON exf_apressure_min            =   9.9645092118575E+04
(PID.TID 0000.0001) %MON exf_apressure_mean           =   1.0183463430718E+05
(PID.TID 0000.0001) %MON exf_apressure_sd             =   8.3352728112997E+02
(PID.TID 0000.0001) %MON exf_apressure_del2           =   2.2278306552211E+01
(PID.TID 0000.0001) %MON exf_runoff_max               =   4.4374798712073E-08
(PID.TID 0000.0001) %MON exf_runoff_min               =   0.0000000000000E+00
(PID.TID 0000.0001) %MON exf_runoff_mean              =   1.5884795719908E-09
(PID.TID 0000.0001) %MON exf_runoff_sd                =   5.3901959599983E-09
(PID.TID 0000.0001) %MON exf_runoff_del2              =   1.2741189756369E-12
(PID.TID 0000.0001) // =======================================================
(PID.TID 0000.0001) // End MONITOR EXF statistics
(PID.TID 0000.0001) // =======================================================
 cg2d: Sum(rhs),rhsMax =   2.21429472337916E+03  8.02389779204807E-02
(PID.TID 0000.0001)      cg2d_init_res =   1.47334868765874E+00
(PID.TID 0000.0001)      cg2d_iters(min,last) =      -1     311
(PID.TID 0000.0001)      cg2d_last_res =   6.80442194124557E-12
(PID.TID 0000.0001) // =======================================================
(PID.TID 0000.0001) // Begin MONITOR dynamic field statistics
(PID.TID 0000.0001) // =======================================================
(PID.TID 0000.0001) %MON time_tsnumber                =                    15
(PID.TID 0000.0001) %MON time_secondsf                =   3.6000000000000E+03
(PID.TID 0000.0001) %MON dynstat_eta_max              =   7.5403223840560E-01
(PID.TID 0000.0001) %MON dynstat_eta_min              =  -1.4020212190414E+00
(PID.TID 0000.0001) %MON dynstat_eta_mean             =  -7.5301744511571E-02
(PID.TID 0000.0001) %MON dynstat_eta_sd               =   2.8699229125576E-01
(PID.TID 0000.0001) %MON dynstat_eta_del2             =   2.4736584483745E-06
(PID.TID 0000.0001) %MON dynstat_uvel_max             =   1.2632409276295E+00
(PID.TID 0000.0001) %MON dynstat_uvel_min             =  -8.7356034942539E-01
(PID.TID 0000.0001) %MON dynstat_uvel_mean            =   3.4565966750422E-03
(PID.TID 0000.0001) %MON dynstat_uvel_sd              =   5.2436252644016E-02
(PID.TID 0000.0001) %MON dynstat_uvel_del2            =   5.4820762480964E-07
(PID.TID 0000.0001) %MON dynstat_vvel_max             =   2.7285896357225E+00
(PID.TID 0000.0001) %MON dynstat_vvel_min             =  -8.8310615379147E-01
(PID.TID 0000.0001) %MON dynstat_vvel_mean            =  -4.7981422928567E-03
(PID.TID 0000.0001) %MON dynstat_vvel_sd              =   4.9584205747985E-02
(PID.TID 0000.0001) %MON dynstat_vvel_del2            =   5.0555396047765E-07
(PID.TID 0000.0001) %MON dynstat_wvel_max             =   3.9442709806301E-02
(PID.TID 0000.0001) %MON dynstat_wvel_min             =  -3.3084120778446E-02
(PID.TID 0000.0001) %MON dynstat_wvel_mean            =  -1.9261330028615E-05
(PID.TID 0000.0001) %MON dynstat_wvel_sd              =   6.1100459908648E-04
(PID.TID 0000.0001) %MON dynstat_wvel_del2            =   7.0322040873177E-08
(PID.TID 0000.0001) %MON dynstat_theta_max            =   2.6139453208228E+01
(PID.TID 0000.0001) %MON dynstat_theta_min            =   1.4688656308238E+00
(PID.TID 0000.0001) %MON dynstat_theta_mean           =   5.5098976570592E+00
(PID.TID 0000.0001) %MON dynstat_theta_sd             =   4.7732708041924E+00
(PID.TID 0000.0001) %MON dynstat_theta_del2           =   4.0344242314405E-06
(PID.TID 0000.0001) %MON dynstat_salt_max             =   3.9138858542533E+01
(PID.TID 0000.0001) %MON dynstat_salt_min             =   3.3091716755180E+01
(PID.TID 0000.0001) %MON dynstat_salt_mean            =   3.5173368176402E+01
(PID.TID 0000.0001) %MON dynstat_salt_sd              =   3.7892324561110E-01
(PID.TID 0000.0001) %MON dynstat_salt_del2            =   5.3363694588945E-07
(PID.TID 0000.0001) %MON dynstat_sst_max              =   2.6128315309209E+01
(PID.TID 0000.0001) %MON dynstat_sst_min              =   3.8601760000824E+00
(PID.TID 0000.0001) %MON dynstat_sst_mean             =   1.9631798673164E+01
(PID.TID 0000.0001) %MON dynstat_sst_sd               =   3.6354527913339E+00
(PID.TID 0000.0001) %MON dynstat_sst_del2             =   1.9419608612424E-05
(PID.TID 0000.0001) %MON dynstat_sss_max              =   3.7335724158418E+01
(PID.TID 0000.0001) %MON dynstat_sss_min              =   3.3091716755180E+01
(PID.TID 0000.0001) %MON dynstat_sss_mean             =   3.5868649977072E+01
(PID.TID 0000.0001) %MON dynstat_sss_sd               =   4.8747327441197E-01
(PID.TID 0000.0001) %MON dynstat_sss_del2             =   4.9010407458528E-06
(PID.TID 0000.0001) %MON forcing_qnet_max             =   1.0690573015345E+03
(PID.TID 0000.0001) %MON forcing_qnet_min             =  -1.8970709362556E+02
(PID.TID 0000.0001) %MON forcing_qnet_mean            =   3.2603610284492E+02
(PID.TID 0000.0001) %MON forcing_qnet_sd              =   2.1540865014786E+02
(PID.TID 0000.0001) %MON forcing_qnet_del2            =   1.1810536086169E-03
(PID.TID 0000.0001) %MON forcing_qsw_max              =   0.0000000000000E+00
(PID.TID 0000.0001) %MON forcing_qsw_min              =  -8.9640303357555E+00
(PID.TID 0000.0001) %MON forcing_qsw_mean             =  -2.9855384123403E-01
(PID.TID 0000.0001) %MON forcing_qsw_sd               =   9.4670382993619E-01
(PID.TID 0000.0001) %MON forcing_qsw_del2             =   3.0487665616508E-06
(PID.TID 0000.0001) %MON forcing_empmr_max            =   2.2388149939030E-04
(PID.TID 0000.0001) %MON forcing_empmr_min            =  -1.1435077123795E-03
(PID.TID 0000.0001) %MON forcing_empmr_mean           =   4.0914429582706E-05
(PID.TID 0000.0001) %MON forcing_empmr_sd             =   1.1218667093008E-04
(PID.TID 0000.0001) %MON forcing_empmr_del2           =   1.0025199862376E-09
(PID.TID 0000.0001) %MON forcing_fu_max               =   5.6348983074292E-01
(PID.TID 0000.0001) %MON forcing_fu_min               =  -1.7527456912040E-01
(PID.TID 0000.0001) %MON forcing_fu_mean              =   9.7361979160253E-02
(PID.TID 0000.0001) %MON forcing_fu_sd                =   1.3429805152231E-01
(PID.TID 0000.0001) %MON forcing_fu_del2              =   1.6962202042021E-07
(PID.TID 0000.0001) %MON forcing_fv_max               =   4.1760395013434E-01
(PID.TID 0000.0001) %MON forcing_fv_min               =  -4.7204592723464E-01
(PID.TID 0000.0001) %MON forcing_fv_mean              =   2.8729528865994E-02
(PID.TID 0000.0001) %MON forcing_fv_sd                =   1.5204793716919E-01
(PID.TID 0000.0001) %MON forcing_fv_del2              =   3.2681893314630E-07
(PID.TID 0000.0001) %MON trAdv_CFL_u_max              =   7.6641790796496E-02
(PID.TID 0000.0001) %MON trAdv_CFL_v_max              =   1.7240159529799E-01
(PID.TID 0000.0001) %MON trAdv_CFL_w_max              =   5.2236607204469E-01
(PID.TID 0000.0001) %MON advcfl_uvel_max              =   7.6641789752949E-02
(PID.TID 0000.0001) %MON advcfl_vvel_max              =   1.7245175750502E-01
(PID.TID 0000.0001) %MON advcfl_wvel_max              =   5.1365997084394E-01
(PID.TID 0000.0001) %MON advcfl_W_hf_max              =   5.2236607204469E-01
(PID.TID 0000.0001) %MON pe_b_mean                    =  -1.7160058463793E-03
(PID.TID 0000.0001) %MON ke_max                       =   3.4006762059763E+00
(PID.TID 0000.0001) %MON ke_mean                      =   2.6022437666571E-03
(PID.TID 0000.0001) %MON ke_vol                       =   4.5818637279720E+16
(PID.TID 0000.0001) %MON vort_r_min                   =  -5.1199061804411E-04
(PID.TID 0000.0001) %MON vort_r_max                   =   7.9287356589747E-04
(PID.TID 0000.0001) %MON vort_a_mean                  =   8.2147619744357E-05
(PID.TID 0000.0001) %MON vort_a_sd                    =   1.0160702396661E-05
(PID.TID 0000.0001) %MON vort_p_mean                  =   8.4848840943524E-05
(PID.TID 0000.0001) %MON vort_p_sd                    =   3.5007858361222E-05
(PID.TID 0000.0001) %MON surfExpan_theta_mean         =  -5.1437347079139E-04
(PID.TID 0000.0001) %MON surfExpan_salt_mean          =  -1.1937901801746E-03
(PID.TID 0000.0001) // =======================================================
(PID.TID 0000.0001) // End MONITOR dynamic field statistics
(PID.TID 0000.0001) // =======================================================
(PID.TID 0000.0001) // =======================================================
(PID.TID 0000.0001) // Begin OBCS MONITOR field statistics
(PID.TID 0000.0001) // =======================================================
(PID.TID 0000.0001) %MON obc_N_vVel_max               =   6.9386348641532E-01
(PID.TID 0000.0001) %MON obc_N_vVel_min               =  -3.2526955108089E-01
(PID.TID 0000.0001) %MON obc_N_vVel_mean              =   1.3207329893574E-02
(PID.TID 0000.0001) %MON obc_N_vVel_sd                =   6.4494935757103E-02
(PID.TID 0000.0001) %MON obc_N_vVel_Int               =   1.8906404295287E+08
(PID.TID 0000.0001) %MON obc_S_vVel_max               =   2.7285896357225E+00
(PID.TID 0000.0001) %MON obc_S_vVel_min               =  -2.6325457576441E-01
(PID.TID 0000.0001) %MON obc_S_vVel_mean              =  -6.2604081018520E-03
(PID.TID 0000.0001) %MON obc_S_vVel_sd                =   3.6578004715070E-02
(PID.TID 0000.0001) %MON obc_S_vVel_Int               =  -1.9058497575623E+08
(PID.TID 0000.0001) %MON obc_N_theta_max              =   1.6389539512358E+01
(PID.TID 0000.0001) %MON obc_N_theta_min              =   1.8895914629663E+00
(PID.TID 0000.0001) %MON obc_N_theta_mean             =   5.1588697396382E+00
(PID.TID 0000.0001) %MON obc_N_theta_sd               =   3.4825945703428E+00
(PID.TID 0000.0001) %MON obc_S_theta_max              =   2.5543400077115E+01
(PID.TID 0000.0001) %MON obc_S_theta_min              =   1.4633015851955E+00
(PID.TID 0000.0001) %MON obc_S_theta_mean             =   5.4595457048426E+00
(PID.TID 0000.0001) %MON obc_S_theta_sd               =   5.3558789690521E+00
(PID.TID 0000.0001) %MON obc_N_salt_max               =   3.5910861522510E+01
(PID.TID 0000.0001) %MON obc_N_salt_min               =   3.3295096609545E+01
(PID.TID 0000.0001) %MON obc_N_salt_mean              =   3.5114559876550E+01
(PID.TID 0000.0001) %MON obc_N_salt_sd                =   3.0984754112533E-01
(PID.TID 0000.0001) %MON obc_S_salt_max               =   3.7318243364860E+01
(PID.TID 0000.0001) %MON obc_S_salt_min               =   3.4844695097122E+01
(PID.TID 0000.0001) %MON obc_S_salt_mean              =   3.5168371860084E+01
(PID.TID 0000.0001) %MON obc_S_salt_sd                =   4.5716584210290E-01
(PID.TID 0000.0001) // =======================================================
(PID.TID 0000.0001) // End OBCS MONITOR field statistics
(PID.TID 0000.0001) // =======================================================
 Computing Diagnostic #     23  ETAN         Counter:      15   Parms: SM      M1      
 Computing Diagnostic #     80  oceTAUX      Counter:      15   Parms: UU      U1      
           Vector  Mate for  oceTAUX      Diagnostic #     81  oceTAUY  exists 
 Computing Diagnostic #     81  oceTAUY      Counter:      15   Parms: VV      U1      
           Vector  Mate for  oceTAUY      Diagnostic #     80  oceTAUX  exists 
 Computing Diagnostic #    185  EXFuwind     Counter:      15   Parms: UM      U1      
 Computing Diagnostic #    186  EXFvwind     Counter:      15   Parms: VM      U1      
 Computing Diagnostic #     26  THETA        Counter:      15   Parms: SMR     MR      
 Computing Diagnostic #     27  SALT         Counter:      15   Parms: SMR     MR      
 Computing Diagnostic #     30  UVEL         Counter:      15   Parms: UUR     MR      
           Vector  Mate for  UVEL         Diagnostic #     31  VVEL     exists 
 Computing Diagnostic #     31  VVEL         Counter:      15   Parms: VVR     MR      
           Vector  Mate for  VVEL         Diagnostic #     30  UVEL     exists 
 Computing Diagnostic #     32  WVEL         Counter:      15   Parms: WM      LR      
 Computing Diagnostic #     36  UVELSQ       Counter:      15   Parms: UURP    MR      
           Vector  Mate for  UVELSQ       Diagnostic #     37  VVELSQ   exists 
 Computing Diagnostic #     37  VVELSQ       Counter:      15   Parms: VVRP    MR      
           Vector  Mate for  VVELSQ       Diagnostic #     36  UVELSQ   exists 
 Computing Diagnostic #     52  WTHMASS      Counter:      15   Parms: WM      LR      
 Computing Diagnostic #     55  WSLTMASS     Counter:      15   Parms: WM      LR      
(PID.TID 0000.0001) %CHECKPOINT        15 ckptA
(PID.TID 0000.0001)   Seconds in section "ALL                    [THE_MODEL_MAIN]":
(PID.TID 0000.0001)           User time:   36.0642756633461
(PID.TID 0000.0001)         System time:  0.000000000000000E+000
(PID.TID 0000.0001)     Wall clock time:   52.9058721065521
(PID.TID 0000.0001)          No. starts:           1
(PID.TID 0000.0001)           No. stops:           1
(PID.TID 0000.0001)   Seconds in section "INITIALISE_FIXED       [THE_MODEL_MAIN]":
(PID.TID 0000.0001)           User time:   1.66155095025897
(PID.TID 0000.0001)         System time:  0.000000000000000E+000
(PID.TID 0000.0001)     Wall clock time:   6.17999291419983
(PID.TID 0000.0001)          No. starts:           1
(PID.TID 0000.0001)           No. stops:           1
(PID.TID 0000.0001)   Seconds in section "THE_MAIN_LOOP          [THE_MODEL_MAIN]":
(PID.TID 0000.0001)           User time:   34.4027148485184
(PID.TID 0000.0001)         System time:  0.000000000000000E+000
(PID.TID 0000.0001)     Wall clock time:   46.7258610725403
(PID.TID 0000.0001)          No. starts:           1
(PID.TID 0000.0001)           No. stops:           1
(PID.TID 0000.0001)   Seconds in section "INITIALISE_VARIA    [THE_MAIN_LOOP]":
(PID.TID 0000.0001)           User time:   1.05917191505432
(PID.TID 0000.0001)         System time:  0.000000000000000E+000
(PID.TID 0000.0001)     Wall clock time:   2.97704482078552
(PID.TID 0000.0001)          No. starts:           1
(PID.TID 0000.0001)           No. stops:           1
(PID.TID 0000.0001)   Seconds in section "MAIN LOOP           [THE_MAIN_LOOP]":
(PID.TID 0000.0001)           User time:   33.3435292243958
(PID.TID 0000.0001)         System time:  0.000000000000000E+000
(PID.TID 0000.0001)     Wall clock time:   43.7488000392914
(PID.TID 0000.0001)          No. starts:           1
(PID.TID 0000.0001)           No. stops:           1
(PID.TID 0000.0001)   Seconds in section "MAIN_DO_LOOP        [THE_MAIN_LOOP]":
(PID.TID 0000.0001)           User time:   33.3434407711029
(PID.TID 0000.0001)         System time:  0.000000000000000E+000
(PID.TID 0000.0001)     Wall clock time:   43.7487070560455
(PID.TID 0000.0001)          No. starts:          15
(PID.TID 0000.0001)           No. stops:          15
(PID.TID 0000.0001)   Seconds in section "FORWARD_STEP        [MAIN_DO_LOOP]":
(PID.TID 0000.0001)           User time:   33.3432323932648
(PID.TID 0000.0001)         System time:  0.000000000000000E+000
(PID.TID 0000.0001)     Wall clock time:   43.7484896183014
(PID.TID 0000.0001)          No. starts:          15
(PID.TID 0000.0001)           No. stops:          15
(PID.TID 0000.0001)   Seconds in section "DO_STATEVARS_DIAGS  [FORWARD_STEP]":
(PID.TID 0000.0001)           User time:  0.822784185409546
(PID.TID 0000.0001)         System time:  0.000000000000000E+000
(PID.TID 0000.0001)     Wall clock time:  0.831129074096680
(PID.TID 0000.0001)          No. starts:          45
(PID.TID 0000.0001)           No. stops:          45
(PID.TID 0000.0001)   Seconds in section "LOAD_FIELDS_DRIVER  [FORWARD_STEP]":
(PID.TID 0000.0001)           User time:  0.165370464324951
(PID.TID 0000.0001)         System time:  0.000000000000000E+000
(PID.TID 0000.0001)     Wall clock time:  0.210438966751099
(PID.TID 0000.0001)          No. starts:          15
(PID.TID 0000.0001)           No. stops:          15
(PID.TID 0000.0001)   Seconds in section "EXF_GETFORCING     [LOAD_FLDS_DRIVER]":
(PID.TID 0000.0001)           User time:  0.164993047714233
(PID.TID 0000.0001)         System time:  0.000000000000000E+000
(PID.TID 0000.0001)     Wall clock time:  0.210053205490112
(PID.TID 0000.0001)          No. starts:          15
(PID.TID 0000.0001)           No. stops:          15
(PID.TID 0000.0001)   Seconds in section "EXTERNAL_FLDS_LOAD [LOAD_FLDS_DRIVER]":
(PID.TID 0000.0001)           User time:  8.964538574218750E-005
(PID.TID 0000.0001)         System time:  0.000000000000000E+000
(PID.TID 0000.0001)     Wall clock time:  1.046657562255859E-004
(PID.TID 0000.0001)          No. starts:          15
(PID.TID 0000.0001)           No. stops:          15
(PID.TID 0000.0001)   Seconds in section "DO_ATMOSPHERIC_PHYS [FORWARD_STEP]":
(PID.TID 0000.0001)           User time:  8.058547973632812E-005
(PID.TID 0000.0001)         System time:  0.000000000000000E+000
(PID.TID 0000.0001)     Wall clock time:  8.153915405273438E-005
(PID.TID 0000.0001)          No. starts:          15
(PID.TID 0000.0001)           No. stops:          15
(PID.TID 0000.0001)   Seconds in section "DO_OCEANIC_PHYS     [FORWARD_STEP]":
(PID.TID 0000.0001)           User time:   3.89002132415771
(PID.TID 0000.0001)         System time:  0.000000000000000E+000
(PID.TID 0000.0001)     Wall clock time:   3.92751789093018
(PID.TID 0000.0001)          No. starts:          15
(PID.TID 0000.0001)           No. stops:          15
(PID.TID 0000.0001)   Seconds in section "KPP_CALC [DO_OCEANIC_PHYS]":
(PID.TID 0000.0001)           User time:   3.38956212997437
(PID.TID 0000.0001)         System time:  0.000000000000000E+000
(PID.TID 0000.0001)     Wall clock time:   3.41909193992615
(PID.TID 0000.0001)          No. starts:          15
(PID.TID 0000.0001)           No. stops:          15
(PID.TID 0000.0001)   Seconds in section "DYNAMICS            [FORWARD_STEP]":
(PID.TID 0000.0001)           User time:   9.93224835395813
(PID.TID 0000.0001)         System time:  0.000000000000000E+000
(PID.TID 0000.0001)     Wall clock time:   9.98358678817749
(PID.TID 0000.0001)          No. starts:          15
(PID.TID 0000.0001)           No. stops:          15
(PID.TID 0000.0001)   Seconds in section "UPDATE_SURF_DR      [FORWARD_STEP]":
(PID.TID 0000.0001)           User time:  7.999134063720703E-002
(PID.TID 0000.0001)         System time:  0.000000000000000E+000
(PID.TID 0000.0001)     Wall clock time:  8.141112327575684E-002
(PID.TID 0000.0001)          No. starts:          15
(PID.TID 0000.0001)           No. stops:          15
(PID.TID 0000.0001)   Seconds in section "SOLVE_FOR_PRESSURE  [FORWARD_STEP]":
(PID.TID 0000.0001)           User time:   1.36139965057373
(PID.TID 0000.0001)         System time:  0.000000000000000E+000
(PID.TID 0000.0001)     Wall clock time:   1.36174750328064
(PID.TID 0000.0001)          No. starts:          15
(PID.TID 0000.0001)           No. stops:          15
(PID.TID 0000.0001)   Seconds in section "MOM_CORRECTION_STEP [FORWARD_STEP]":
(PID.TID 0000.0001)           User time:  0.213422298431396
(PID.TID 0000.0001)         System time:  0.000000000000000E+000
(PID.TID 0000.0001)     Wall clock time:  0.213769912719727
(PID.TID 0000.0001)          No. starts:          15
(PID.TID 0000.0001)           No. stops:          15
(PID.TID 0000.0001)   Seconds in section "INTEGR_CONTINUITY   [FORWARD_STEP]":
(PID.TID 0000.0001)           User time:  0.290585279464722
(PID.TID 0000.0001)         System time:  0.000000000000000E+000
(PID.TID 0000.0001)     Wall clock time:  0.290646791458130
(PID.TID 0000.0001)          No. starts:          15
(PID.TID 0000.0001)           No. stops:          15
(PID.TID 0000.0001)   Seconds in section "BLOCKING_EXCHANGES  [FORWARD_STEP]":
(PID.TID 0000.0001)           User time:  0.937240123748779
(PID.TID 0000.0001)         System time:  0.000000000000000E+000
(PID.TID 0000.0001)     Wall clock time:  0.938031673431396
(PID.TID 0000.0001)          No. starts:          30
(PID.TID 0000.0001)           No. stops:          30
(PID.TID 0000.0001)   Seconds in section "THERMODYNAMICS      [FORWARD_STEP]":
(PID.TID 0000.0001)           User time:   6.02956962585449
(PID.TID 0000.0001)         System time:  0.000000000000000E+000
(PID.TID 0000.0001)     Wall clock time:   6.08223414421082
(PID.TID 0000.0001)          No. starts:          15
(PID.TID 0000.0001)           No. stops:          15
(PID.TID 0000.0001)   Seconds in section "TRC_CORRECTION_STEP [FORWARD_STEP]":
(PID.TID 0000.0001)           User time:  8.201599121093750E-005
(PID.TID 0000.0001)         System time:  0.000000000000000E+000
(PID.TID 0000.0001)     Wall clock time:  8.535385131835938E-005
(PID.TID 0000.0001)          No. starts:          15
(PID.TID 0000.0001)           No. stops:          15
(PID.TID 0000.0001)   Seconds in section "MONITOR             [FORWARD_STEP]":
(PID.TID 0000.0001)           User time:   1.06130361557007
(PID.TID 0000.0001)         System time:  0.000000000000000E+000
(PID.TID 0000.0001)     Wall clock time:   1.06230425834656
(PID.TID 0000.0001)          No. starts:          15
(PID.TID 0000.0001)           No. stops:          15
(PID.TID 0000.0001)   Seconds in section "DO_THE_MODEL_IO     [FORWARD_STEP]":
(PID.TID 0000.0001)           User time:   3.99908399581909
(PID.TID 0000.0001)         System time:  0.000000000000000E+000
(PID.TID 0000.0001)     Wall clock time:   8.02948117256165
(PID.TID 0000.0001)          No. starts:          15
(PID.TID 0000.0001)           No. stops:          15
(PID.TID 0000.0001)   Seconds in section "DO_WRITE_PICKUP     [FORWARD_STEP]":
(PID.TID 0000.0001)           User time:   4.55777311325073
(PID.TID 0000.0001)         System time:  0.000000000000000E+000
(PID.TID 0000.0001)     Wall clock time:   10.7341818809509
(PID.TID 0000.0001)          No. starts:          15
(PID.TID 0000.0001)           No. stops:          15
(PID.TID 0000.0001) // ======================================================
(PID.TID 0000.0001) // Tile <-> Tile communication statistics
(PID.TID 0000.0001) // ======================================================
(PID.TID 0000.0001) // o Tile number: 000001
(PID.TID 0000.0001) //         No. X exchanges =              0
(PID.TID 0000.0001) //            Max. X spins =              0
(PID.TID 0000.0001) //            Min. X spins =     1000000000
(PID.TID 0000.0001) //          Total. X spins =              0
(PID.TID 0000.0001) //            Avg. X spins =       0.00E+00
(PID.TID 0000.0001) //         No. Y exchanges =              0
(PID.TID 0000.0001) //            Max. Y spins =              0
(PID.TID 0000.0001) //            Min. Y spins =     1000000000
(PID.TID 0000.0001) //          Total. Y spins =              0
(PID.TID 0000.0001) //            Avg. Y spins =       0.00E+00
(PID.TID 0000.0001) // o Thread number: 000001
(PID.TID 0000.0001) //            No. barriers =          72354
(PID.TID 0000.0001) //      Max. barrier spins =              1
(PID.TID 0000.0001) //      Min. barrier spins =              1
(PID.TID 0000.0001) //     Total barrier spins =          72354
(PID.TID 0000.0001) //      Avg. barrier spins =       1.00E+00
PROGRAM MAIN: Execution ended Normally
