(PID.TID 0000.0001) 
(PID.TID 0000.0001) // ======================================================
(PID.TID 0000.0001) //                      MITgcm UV
(PID.TID 0000.0001) //                      =========
(PID.TID 0000.0001) // ======================================================
(PID.TID 0000.0001) // execution environment starting up...
(PID.TID 0000.0001) 
(PID.TID 0000.0001) // MITgcmUV version:  checkpoint67c
(PID.TID 0000.0001) // Build user:        dmenemen
(PID.TID 0000.0001) // Build host:        r1i0n15
(PID.TID 0000.0001) // Build date:        Mon Jul 23 20:38:12 PDT 2018
(PID.TID 0000.0001) 
(PID.TID 0000.0001) // =======================================================
(PID.TID 0000.0001) // Execution Environment parameter file "eedata"
(PID.TID 0000.0001) // =======================================================
(PID.TID 0000.0001) ># Example "eedata" file
(PID.TID 0000.0001) ># Lines beginning "#" are comments
(PID.TID 0000.0001) ># nTx - No. threads per process in X
(PID.TID 0000.0001) ># nTy - No. threads per process in Y
(PID.TID 0000.0001) > &EEPARMS
(PID.TID 0000.0001) > nTx=1,
(PID.TID 0000.0001) > nTy=1,
(PID.TID 0000.0001) ># debugMode=.TRUE.,
(PID.TID 0000.0001) > /
(PID.TID 0000.0001) ># Note: Some systems use & as the
(PID.TID 0000.0001) ># namelist terminator. Other systems
(PID.TID 0000.0001) ># use a / character (as shown here).
(PID.TID 0000.0001) 
(PID.TID 0000.0001) // =======================================================
(PID.TID 0000.0001) // Computational Grid Specification ( see files "SIZE.h" )
(PID.TID 0000.0001) //                                  ( and "eedata"       )
(PID.TID 0000.0001) // =======================================================
(PID.TID 0000.0001)      nPx =   24 ; /* No. processes in X */
(PID.TID 0000.0001)      nPy =    6 ; /* No. processes in Y */
(PID.TID 0000.0001)      nSx =    1 ; /* No. tiles in X per process */
(PID.TID 0000.0001)      nSy =    1 ; /* No. tiles in Y per process */
(PID.TID 0000.0001)      sNx =   90 ; /* Tile size in X */
(PID.TID 0000.0001)      sNy =   90 ; /* Tile size in Y */
(PID.TID 0000.0001)      OLx =    4 ; /* Tile overlap distance in X */
(PID.TID 0000.0001)      OLy =    4 ; /* Tile overlap distance in Y */
(PID.TID 0000.0001)      nTx =    1 ; /* No. threads in X per process */
(PID.TID 0000.0001)      nTy =    1 ; /* No. threads in Y per process */
(PID.TID 0000.0001)       Nr =  100 ; /* No. levels in the vertical   */
(PID.TID 0000.0001)       Nx = 2160 ; /* Total domain size in X ( = nPx*nSx*sNx ) */
(PID.TID 0000.0001)       Ny =  540 ; /* Total domain size in Y ( = nPy*nSy*sNy ) */
(PID.TID 0000.0001)   nTiles =    1 ; /* Total no. tiles per process ( = nSx*nSy ) */
(PID.TID 0000.0001)   nProcs =  144 ; /* Total no. processes ( = nPx*nPy ) */
(PID.TID 0000.0001) nThreads =    1 ; /* Total no. threads per process ( = nTx*nTy ) */
(PID.TID 0000.0001) usingMPI =    T ; /* Flag used to control whether MPI is in use */
(PID.TID 0000.0001)                   /*  note: To execute a program with MPI calls */
(PID.TID 0000.0001)                   /*  it must be launched appropriately e.g     */
(PID.TID 0000.0001)                   /*  "mpirun -np 64 ......"                    */
(PID.TID 0000.0001) useCoupler=    F ;/* Flag used to control communications with   */
(PID.TID 0000.0001)                   /*  other model components, through a coupler */
(PID.TID 0000.0001) debugMode =    F ; /* print debug msg. (sequence of S/R calls)  */
(PID.TID 0000.0001) printMapIncludesZeros=    F ; /* print zeros in Std.Output maps */
(PID.TID 0000.0001) maxLengthPrt1D=   65 /* maxLength of 1D array printed to StdOut */
(PID.TID 0000.0001) 
(PID.TID 0000.0001) ======= Starting MPI parallel Run =========
(PID.TID 0000.0001)  My Processor Name (len:  7 ) = r1i0n15
(PID.TID 0000.0001)  Located at (  0,  0) on processor grid (0: 23,0:  5)
(PID.TID 0000.0001)  Origin at  (     1,     1) on global grid (1:  2160,1:   540)
(PID.TID 0000.0001)  North neighbor = processor 0001
(PID.TID 0000.0001)  South neighbor = processor 0005
(PID.TID 0000.0001)   East neighbor = processor 0006
(PID.TID 0000.0001)   West neighbor = processor 0138
(PID.TID 0000.0001) // ======================================================
(PID.TID 0000.0001) // Mapping of tiles to threads
(PID.TID 0000.0001) // ======================================================
(PID.TID 0000.0001) // -o- Thread   1, tiles (   1:   1,   1:   1)
(PID.TID 0000.0001) 
(PID.TID 0000.0001) W2_READPARMS: opening data.exch2
(PID.TID 0000.0001)  OPEN_COPY_DATA_FILE: opening file data.exch2
(PID.TID 0000.0001) // =======================================================
(PID.TID 0000.0001) // Parameter file "data.exch2"
(PID.TID 0000.0001) // =======================================================
(PID.TID 0000.0001) ># EXCH2 Package: Wrapper-2 User Choice
(PID.TID 0000.0001) >#--------------------
(PID.TID 0000.0001) >#  preDefTopol   :: pre-defined Topology selector:
(PID.TID 0000.0001) >#                :: = 0 : topology defined from processing "data.exch2";
(PID.TID 0000.0001) >#                :: = 1 : simple, single facet topology;
(PID.TID 0000.0001) >#                :: = 2 : customized topology (w2_set_myown_facets)
(PID.TID 0000.0001) >#                :: = 3 : 6-facet Cube (3 face-dims: nRed, nGreen, nBlue).
(PID.TID 0000.0001) >#  dimsFacets    :: facet pair of dimensions (n1x,n1y, n2x,n2y ...)
(PID.TID 0000.0001) >#  facetEdgeLink :: Face-Edge connectivity map:
(PID.TID 0000.0001) >#    facetEdgeLink(i,j)=XX.1 : face(j)-edge(i) (i=1,2,3,4 <==> N,S,E,W)
(PID.TID 0000.0001) >#    is connected to Northern edge of face "XX" ; similarly,
(PID.TID 0000.0001) >#    = XX.2 : to Southern.E, XX.3 = Eastern.E, XX.4 = Western.E of face "XX"
(PID.TID 0000.0001) >#  blankList     :: List of "blank" tiles
(PID.TID 0000.0001) >#  W2_mapIO      :: global map IO selector (-1 = old type ; 0 = 1 long line in X
(PID.TID 0000.0001) >#                :: 1 = compact, mostly in Y dir)
(PID.TID 0000.0001) >#  W2_printMsg   :: option for information messages printing
(PID.TID 0000.0001) >#                :: <0 : write to log file ; =0 : minimum print ;
(PID.TID 0000.0001) >#                :: =1 : no duplicated print ; =2 : all processes do print
(PID.TID 0000.0001) >#--------------------
(PID.TID 0000.0001) > &W2_EXCH2_PARM01
(PID.TID 0000.0001) >  W2_printMsg= 0,
(PID.TID 0000.0001) >  W2_mapIO   = 1,
(PID.TID 0000.0001) >#
(PID.TID 0000.0001) >#-- 5 facets llc_270 topology (drop facet 6 and its connection):
(PID.TID 0000.0001) >  preDefTopol = 1,
(PID.TID 0000.0001) >  dimsFacets = 2160, 540,
(PID.TID 0000.0001) > &
(PID.TID 0000.0001) 
(PID.TID 0000.0001) W2_READPARMS: finished reading data.exch2
(PID.TID 0000.0001) W2_useE2ioLayOut=    T ;/* T: use Exch2 glob IO map; F: use model default */
(PID.TID 0000.0001) W2_mapIO        =   1 ; /* select option for Exch2 global-IO map */
(PID.TID 0000.0001) W2_printMsg     =   0 ; /* select option for printing information */
(PID.TID 0000.0001) ===== Start setting W2 TOPOLOGY:
(PID.TID 0000.0001) W2_E2SETUP: number of Active Tiles =     144
(PID.TID 0000.0001) W2_E2SETUP: number of Blank Tiles  =       0
(PID.TID 0000.0001) W2_E2SETUP: Total number of Tiles  =     144
(PID.TID 0000.0001) W2_SET_SINGLE_FACET: preDefTopol=  1 selected
(PID.TID 0000.0001) W2_E2SETUP: Total number of Facets =       1
(PID.TID 0000.0001) W2_SET_F2F_INDEX: index matrix for connected Facet-Edges:
(PID.TID 0000.0001) W2_SET_MAP_TILES: tile mapping within facet and global Map:
(PID.TID 0000.0001)  W2_mapIO = 2160 (=   24*sNx)
(PID.TID 0000.0001)  Global Map (IO): X-size=    2160 , Y-size=     540
(PID.TID 0000.0001) W2_SET_MAP_TILES: tile offset within facet and global Map:
- facet  1 : X-size=  2160 , Y-size=   540 ;  144 tiles (Tx,Ty=  24,   6)
(PID.TID 0000.0001) W2_SET_MAP_CUMSUM: setting Facet Matrix for CUMUL-SUM
 Facet Matrix for CUMUL-SUM (nFacets=   1, nActive=   1 ):
- facet  1 :  0  0 ,
(PID.TID 0000.0001) W2_SET_MAP_CUMSUM: done (skip Tile Matrix setting)
(PID.TID 0000.0001) W2_SET_TILE2TILES: tile neighbours and index connection:
(PID.TID 0000.0001) current Max.Nb.Neighbours (e.g., on tile    1 ) =  4
(PID.TID 0000.0001) ===== W2 TILE TOPOLOGY =====
(PID.TID 0000.0001)  TILE:     1 (bi,bj=   1   1 ), Nb of Neighbours =  4
(PID.TID 0000.0001)     NEIGHBOUR  1 = TILE   25 (n=  2) Comm = MSG (PROC=    2)
(PID.TID 0000.0001)     NEIGHBOUR  2 = TILE  121 (n=  1) Comm = MSG (PROC=    6)
(PID.TID 0000.0001)     NEIGHBOUR  3 = TILE    2 (n=  4) Comm = MSG (PROC=    7)
(PID.TID 0000.0001)     NEIGHBOUR  4 = TILE   24 (n=  3) Comm = MSG (PROC=  139)
(PID.TID 0000.0001) =====       setting W2 TOPOLOGY: Done
(PID.TID 0000.0001) 
(PID.TID 0000.0001)  INI_PARMS: opening model parameter file "data"
(PID.TID 0000.0001)  OPEN_COPY_DATA_FILE: opening file data
(PID.TID 0000.0001) // =======================================================
(PID.TID 0000.0001) // Parameter file "data"
(PID.TID 0000.0001) // =======================================================
(PID.TID 0000.0001) >### Data file with primary model parameters -----------------------------------
(PID.TID 0000.0001) >#
(PID.TID 0000.0001) >### Continuous equation parameters --------------------------------------------
(PID.TID 0000.0001) > &PARM01
(PID.TID 0000.0001) >## Reference temperatures and salinities for every vertical level.
(PID.TID 0000.0001) > tRef =  18.89, 18.89, 18.89, 18.89, 18.89, 18.87, 18.85, 18.82,
(PID.TID 0000.0001) >         18.80, 18.73, 18.63, 18.49, 18.28, 18.08, 17.86, 17.63,
(PID.TID 0000.0001) >         17.40, 17.18, 16.95, 16.73, 16.52, 16.31, 16.10, 15.89,
(PID.TID 0000.0001) >         15.69, 15.49, 15.28, 15.08, 14.88, 14.67, 14.47, 14.25,
(PID.TID 0000.0001) >         14.03, 13.80, 13.55, 13.29, 13.01, 12.73, 12.42, 12.11,
(PID.TID 0000.0001) >         11.78, 11.43, 11.07, 10.70, 10.31,  9.93,  9.53,  9.11,
(PID.TID 0000.0001) >          8.71,  8.29,  7.89,  7.51,  7.13,  6.78,  6.44,  6.11,
(PID.TID 0000.0001) >          5.81,  5.51,  5.23,  4.97,  4.73,  4.51,  4.30,  4.11,
(PID.TID 0000.0001) >          3.94,  3.78,  3.63,  3.50,  3.38,  3.25,  3.14,  3.04,
(PID.TID 0000.0001) >          2.94,  2.83,  2.74,  2.64,  2.54,  2.45,  2.36,  2.27,
(PID.TID 0000.0001) >          2.19,  2.10,  2.03,  1.95,  1.86,  1.78,  1.70,  1.63,
(PID.TID 0000.0001) >          1.55,  1.48,  1.41,  1.34,  1.27,  1.20,  1.13,  1.06,
(PID.TID 0000.0001) >          1.00,  0.96,  0.93,  0.91,
(PID.TID 0000.0001) > sRef =  34.84, 34.84, 34.84, 34.84, 34.84, 34.84, 34.85, 34.85,
(PID.TID 0000.0001) >         34.85, 34.86, 34.87, 34.88, 34.90, 34.91, 34.93, 34.95,
(PID.TID 0000.0001) >         34.96, 34.98, 34.99, 35.00, 35.01, 35.02, 35.03, 35.04,
(PID.TID 0000.0001) >         35.05, 35.06, 35.07, 35.07, 35.07, 35.07, 35.07, 35.07,
(PID.TID 0000.0001) >         35.07, 35.06, 35.05, 35.04, 35.03, 35.02, 35.01, 34.99,
(PID.TID 0000.0001) >         34.97, 34.95, 34.92, 34.90, 34.87, 34.84, 34.81, 34.78,
(PID.TID 0000.0001) >         34.75, 34.72, 34.69, 34.67, 34.65, 34.62, 34.61, 34.60,
(PID.TID 0000.0001) >         34.59, 34.59, 34.58, 34.59, 34.59, 34.60, 34.60, 34.61,
(PID.TID 0000.0001) >         34.62, 34.63, 34.64, 34.65, 34.66, 34.67, 34.67, 34.68,
(PID.TID 0000.0001) >         34.69, 34.70, 34.71, 34.71, 34.72, 34.72, 34.73, 34.73,
(PID.TID 0000.0001) >         34.73, 34.74, 34.74, 34.74, 34.74, 34.75, 34.74, 34.74,
(PID.TID 0000.0001) >         34.74, 34.74, 34.74, 34.74, 34.74, 34.74, 34.73, 34.73,
(PID.TID 0000.0001) >         34.73, 34.73, 34.73, 34.73,
(PID.TID 0000.0001) > rhonil        = 1029.,
(PID.TID 0000.0001) > rhoConstFresh = 1000.,
(PID.TID 0000.0001) > eosType = 'JMD95Z',
(PID.TID 0000.0001) >#
(PID.TID 0000.0001) >## Various prescriptions for viscosity and diffusivity.
(PID.TID 0000.0001) > viscAr     = 5.e-04,
(PID.TID 0000.0001) > viscA4Grid = 0.0,
(PID.TID 0000.0001) > diffKhT    = 0.E0,
(PID.TID 0000.0001) > diffKhS    = 0.E0,
(PID.TID 0000.0001) > diffK4T    = 0.E10,
(PID.TID 0000.0001) > diffK4S    = 0.E10,
(PID.TID 0000.0001) > diffKrT    = 1.0e-5,
(PID.TID 0000.0001) > diffKrS    = 1.0e-5,
(PID.TID 0000.0001) > bottomDragQuadratic = 0.002,
(PID.TID 0000.0001) > no_slip_sides     = .TRUE.,
(PID.TID 0000.0001) > no_slip_bottom    = .TRUE.,
(PID.TID 0000.0001) > implicitDiffusion = .TRUE.,
(PID.TID 0000.0001) > implicitViscosity = .TRUE.,
(PID.TID 0000.0001) ># horizontal momentum closure
(PID.TID 0000.0001) > viscC4Leith   = 2.0,
(PID.TID 0000.0001) > viscC4Leithd  = 2.0,
(PID.TID 0000.0001) > viscA4GridMax = 0.8,
(PID.TID 0000.0001) >#
(PID.TID 0000.0001) >## Parameters that control numerical methods like advection schemes and
(PID.TID 0000.0001) >#  treatment of the free-surface.
(PID.TID 0000.0001) > tempAdvScheme = 7,
(PID.TID 0000.0001) > saltAdvScheme = 7,
(PID.TID 0000.0001) > implicitFreeSurface     = .TRUE.,
(PID.TID 0000.0001) > staggerTimeStep         = .TRUE.,
(PID.TID 0000.0001) > exactConserv            = .TRUE.,
(PID.TID 0000.0001) > vectorInvariantMomentum = .TRUE.,
(PID.TID 0000.0001) > useAreaViscLength       = .TRUE.,
(PID.TID 0000.0001) > highOrderVorticity      = .TRUE.,
(PID.TID 0000.0001) > multiDimAdvection       = .TRUE.,
(PID.TID 0000.0001) >#
(PID.TID 0000.0001) >## These parameters seem to be associated with the external forcing.
(PID.TID 0000.0001) > convertFW2Salt = -1.,
(PID.TID 0000.0001) > temp_EvPrRn    =  0.,
(PID.TID 0000.0001) > useRealFreshWaterFlux = .FALSE.,
(PID.TID 0000.0001) > allowFreezing         = .FALSE.,
(PID.TID 0000.0001) >#
(PID.TID 0000.0001) >## Parameters associated with bathymetry specification.
(PID.TID 0000.0001) > hFacMin   = 0.2,
(PID.TID 0000.0001) > hFacMinDr = 5.,
(PID.TID 0000.0001) >#
(PID.TID 0000.0001) >## Parameters for reading, writing, and misc numerical details.
(PID.TID 0000.0001) > globalFiles     = .TRUE.,
(PID.TID 0000.0001) > useSingleCpuIO  = .TRUE.,
(PID.TID 0000.0001) > readBinaryPrec  = 32,
(PID.TID 0000.0001) > writeBinaryPrec = 32,
(PID.TID 0000.0001) > debuglevel      = 2,
(PID.TID 0000.0001) >#
(PID.TID 0000.0001) >## Unused parameters.
(PID.TID 0000.0001) ># gravity = 9.81,
(PID.TID 0000.0001) ># viscA4Grid = 2.0E-3,
(PID.TID 0000.0001) ># viscAhGrid = 2.5E-4,
(PID.TID 0000.0001) ># bottomDraglinear    = 1.E-3,
(PID.TID 0000.0001) ># Note: nonlinFreeSurf=1 with rStar=0 breaks the code.
(PID.TID 0000.0001) ># nonlinFreeSurf = 4,
(PID.TID 0000.0001) ># select_rStar   = 1,
(PID.TID 0000.0001) ># hFacInf   = 0.1,
(PID.TID 0000.0001) ># hFacSup   = 5.,
(PID.TID 0000.0001) ># implicSurfPress = 0.6,
(PID.TID 0000.0001) ># implicDiv2DFlow = 0.6,
(PID.TID 0000.0001) ># useSingleCpuInput = .TRUE.,
(PID.TID 0000.0001) ># set to eccov4, make sure minbathy=20m first
(PID.TID 0000.0001) ># debuglevel = -1,
(PID.TID 0000.0001) ># useJamartWetPoints = .TRUE.,
(PID.TID 0000.0001) ># writeBinaryPrec=64,
(PID.TID 0000.0001) > /
(PID.TID 0000.0001) >### Elliptic solver parameters ------------------------------------------------
(PID.TID 0000.0001) > &PARM02
(PID.TID 0000.0001) > cg2dMaxIters       = 1000,
(PID.TID 0000.0001) ># cg2dTargetResidual = 1.E-8,
(PID.TID 0000.0001) > cg2dTargetResWunit = 1e-18,
(PID.TID 0000.0001) >#
(PID.TID 0000.0001) >#cg2dMaxIters       = 100,
(PID.TID 0000.0001) >#cg2dTargetResidual = 1.E-5,
(PID.TID 0000.0001) > &
(PID.TID 0000.0001) >### Time stepping parameters --------------------------------------------------
(PID.TID 0000.0001) > &PARM03
(PID.TID 0000.0001) > deltaT      =    240.,
(PID.TID 0000.0001) > nIter0      =  0,
(PID.TID 0000.0001) > nTimeSteps  =  15,
(PID.TID 0000.0001) > pChkptFreq  = 864000.,
(PID.TID 0000.0001) > monitorFreq =   240.,
(PID.TID 0000.0001) > abEps       = 0.1,
(PID.TID 0000.0001) >## It is unclear what these specify.
(PID.TID 0000.0001) > pickupStrictlyMatch = .FALSE.,
(PID.TID 0000.0001) > forcing_In_AB       = .FALSE.,
(PID.TID 0000.0001) > momDissip_In_AB     = .FALSE.,
(PID.TID 0000.0001) > dumpInitAndLast     = .FALSE.,
(PID.TID 0000.0001) > /
(PID.TID 0000.0001) >### Gridding parameters -------------------------------------------------------
(PID.TID 0000.0001) > &PARM04
(PID.TID 0000.0001) > usingSphericalPolarGrid=.TRUE.,
(PID.TID 0000.0001) >## Specify the height of each vertical level.
(PID.TID 0000.0001) > delR =   5.00,   5.00,   5.00,   5.00,   5.00,   5.00,   5.00,   5.00,   5.00,
(PID.TID 0000.0001) >          5.00,   5.00,   5.00,   5.00,   5.00,   5.00,   5.01,   5.01,   5.02,
(PID.TID 0000.0001) >          5.04,   5.07,   5.12,   5.20,   5.31,   5.49,   5.72,   6.04,   6.45,
(PID.TID 0000.0001) >          6.97,   7.62,   8.42,   9.36,  10.46,  11.72,  13.13,  14.70,  16.40,
(PID.TID 0000.0001) >         18.24,  20.18,  22.21,  24.29,  26.43,  28.57,  30.71,  32.79,  34.82,
(PID.TID 0000.0001) >         36.76,  38.60,  40.30,  41.87,  43.28,  44.54,  45.64,  46.58,  47.38,
(PID.TID 0000.0001) >         48.03,  48.55,  48.96,  49.29,  49.53,  49.72,  49.90,  50.11,  50.41,
(PID.TID 0000.0001) >         50.92,  51.69,  52.87,  54.54,  56.79,  59.67,  63.16,  67.26,  71.83,
(PID.TID 0000.0001) >         76.83,  82.11,  87.61,  93.22,  98.91, 104.64, 110.38, 116.12, 121.87,
(PID.TID 0000.0001) >        127.63, 133.38, 139.12, 144.87, 150.63, 156.38, 162.12, 167.87, 173.63,
(PID.TID 0000.0001) >        179.38, 185.12, 190.87, 196.63, 202.38, 208.12, 213.87, 219.63, 225.38,
(PID.TID 0000.0001) >        231.12,
(PID.TID 0000.0001) > xgOrigin=-83.,
(PID.TID 0000.0001) > dxSpacing=0.041666666666667,
(PID.TID 0000.0001) > ygOrigin=26.650054931640625,
(PID.TID 0000.0001) > delYFile = 'delYFile',
(PID.TID 0000.0001) > /
(PID.TID 0000.0001) ># -----------------------------------------------------------------------------
(PID.TID 0000.0001) >### Bathymetry files and initial condition files
(PID.TID 0000.0001) > &PARM05
(PID.TID 0000.0001) > bathyFile       = 'bathy.bin',
(PID.TID 0000.0001) > hydrogThetaFile = 'T0_2160x540x100.bin',
(PID.TID 0000.0001) > hydrogSaltFile  = 'S0_2160x540x100.bin',
(PID.TID 0000.0001) > uVelInitFile    = 'U0_2160x540x100.bin',
(PID.TID 0000.0001) > vVelInitFile    = 'V0_2160x540x100.bin',
(PID.TID 0000.0001) ># diffKrFile  = 'diffkr_basin_v1m9EfC_llc1080.bin',
(PID.TID 0000.0001) ># viscA4Dfile = 'visc3DblendfromrunobcsCdiv1e6_08Mar2016_aste2160.bin',
(PID.TID 0000.0001) ># viscA4Zfile = 'visc3DblendfromrunobcsCdiv1e6_08Mar2016_aste2160.bin',
(PID.TID 0000.0001) > /
(PID.TID 0000.0001) 
(PID.TID 0000.0001)  INI_PARMS ; starts to read PARM01
(PID.TID 0000.0001)  INI_PARMS ; read PARM01 : OK
(PID.TID 0000.0001)  INI_PARMS ; starts to read PARM02
(PID.TID 0000.0001)  INI_PARMS ; read PARM02 : OK
(PID.TID 0000.0001)  INI_PARMS ; starts to read PARM03
(PID.TID 0000.0001)  INI_PARMS ; read PARM03 : OK
(PID.TID 0000.0001)  INI_PARMS ; starts to read PARM04
(PID.TID 0000.0001)  INI_PARMS ; read PARM04 : OK
(PID.TID 0000.0001)  INI_PARMS ; starts to read PARM05
(PID.TID 0000.0001)  INI_PARMS ; read PARM05 : OK
(PID.TID 0000.0001)  INI_PARMS: finished reading file "data"
(PID.TID 0000.0001)  PACKAGES_BOOT: opening data.pkg
(PID.TID 0000.0001)  OPEN_COPY_DATA_FILE: opening file data.pkg
(PID.TID 0000.0001) // =======================================================
(PID.TID 0000.0001) // Parameter file "data.pkg"
(PID.TID 0000.0001) // =======================================================
(PID.TID 0000.0001) ># Packages
(PID.TID 0000.0001) > &PACKAGES
(PID.TID 0000.0001) > useCAL         = .TRUE.,
(PID.TID 0000.0001) > useEXF         = .TRUE.,
(PID.TID 0000.0001) > useKPP         = .TRUE.,
(PID.TID 0000.0001) > useDiagnostics = .TRUE.,
(PID.TID 0000.0001) > useOBCS        = .TRUE.,
(PID.TID 0000.0001) ># useProfiles=.TRUE.,
(PID.TID 0000.0001) > /
(PID.TID 0000.0001) 
(PID.TID 0000.0001)  PACKAGES_BOOT: finished reading data.pkg
(PID.TID 0000.0001)  PACKAGES_BOOT: On/Off package Summary
 --------  pkgs with a standard "usePKG" On/Off switch in "data.pkg":  --------
 pkg/obcs                 compiled   and   used ( useOBCS                  = T )
 pkg/kpp                  compiled   and   used ( useKPP                   = T )
 pkg/cal                  compiled   and   used ( useCAL                   = T )
 pkg/exf                  compiled   and   used ( useEXF                   = T )
 pkg/diagnostics          compiled   and   used ( useDiagnostics           = T )
 -------- pkgs without standard "usePKG" On/Off switch in "data.pkg":  --------
 pkg/generic_advdiff      compiled   and   used ( useGAD                   = T )
 pkg/mom_common           compiled   and   used ( momStepping              = T )
 pkg/mom_vecinv           compiled   and   used ( +vectorInvariantMomentum = T )
 pkg/monitor              compiled   and   used ( monitorFreq > 0.         = T )
 pkg/debug                compiled but not used ( debugMode                = F )
 pkg/exch2                compiled   and   used
 pkg/rw                   compiled   and   used
 pkg/mdsio                compiled   and   used
(PID.TID 0000.0001)  PACKAGES_BOOT: End of package Summary
(PID.TID 0000.0001) 
(PID.TID 0000.0001) CAL_READPARMS: opening data.cal
(PID.TID 0000.0001)  OPEN_COPY_DATA_FILE: opening file data.cal
(PID.TID 0000.0001) // =======================================================
(PID.TID 0000.0001) // Parameter file "data.cal"
(PID.TID 0000.0001) // =======================================================
(PID.TID 0000.0001) >#
(PID.TID 0000.0001) ># *******************
(PID.TID 0000.0001) ># Calendar Parameters
(PID.TID 0000.0001) ># *******************
(PID.TID 0000.0001) > &CAL_NML
(PID.TID 0000.0001) > TheCalendar='gregorian',
(PID.TID 0000.0001) > startDate_1=20030101,
(PID.TID 0000.0001) > startDate_2=000000,
(PID.TID 0000.0001) > calendarDumps = .TRUE.,
(PID.TID 0000.0001) > &
(PID.TID 0000.0001) 
(PID.TID 0000.0001) CAL_READPARMS: finished reading data.cal
(PID.TID 0000.0001) EXF_READPARMS: opening data.exf
(PID.TID 0000.0001)  OPEN_COPY_DATA_FILE: opening file data.exf
(PID.TID 0000.0001) // =======================================================
(PID.TID 0000.0001) // Parameter file "data.exf"
(PID.TID 0000.0001) // =======================================================
(PID.TID 0000.0001) ># *********************
(PID.TID 0000.0001) ># External Forcing Data
(PID.TID 0000.0001) ># *********************
(PID.TID 0000.0001) >#
(PID.TID 0000.0001) > &EXF_NML_01
(PID.TID 0000.0001) >#
(PID.TID 0000.0001) > useAtmWind        = .TRUE.,
(PID.TID 0000.0001) >#
(PID.TID 0000.0001) >#TO COMBINE WITH ALLOW_ZENITH_ANGLE:
(PID.TID 0000.0001) ># exf_albedo        = 0.1,
(PID.TID 0000.0001) ># useExfZenIncoming = .TRUE.,
(PID.TID 0000.0001) ># select_ZenAlbedo  = 1,
(PID.TID 0000.0001) >##
(PID.TID 0000.0001) ># ocean_emissivity = 0.97,
(PID.TID 0000.0001) ># ice_emissivity = 0.95,
(PID.TID 0000.0001) ># snow_emissivity = 0.95,
(PID.TID 0000.0001) >#
(PID.TID 0000.0001) ># exf_albedo        = 0.1556,
(PID.TID 0000.0001) > exf_albedo        = 0.1,
(PID.TID 0000.0001) > exf_scal_BulkCdn  = 0.9997,
(PID.TID 0000.0001) > exf_iprec         = 32,
(PID.TID 0000.0001) > exf_iprec_obcs    = 32,
(PID.TID 0000.0001) > exf_yftype        = 'RL',
(PID.TID 0000.0001) > useExfYearlyFields= .TRUE.,
(PID.TID 0000.0001) > useExfCheckRange  = .FALSE.,
(PID.TID 0000.0001) > useRelativeWind   = .TRUE.,
(PID.TID 0000.0001) > &
(PID.TID 0000.0001) >#
(PID.TID 0000.0001) > &EXF_NML_02
(PID.TID 0000.0001) > precipfile        = 'jra55/jra55_rain',
(PID.TID 0000.0001) > atempfile         = 'jra55/jra55_tmp2m_degC',
(PID.TID 0000.0001) > aqhfile           = 'jra55/jra55_spfh2m',
(PID.TID 0000.0001) > swdownfile        = 'jra55/jra55_dsw',
(PID.TID 0000.0001) > lwdownfile        = 'jra55/jra55_dlw',
(PID.TID 0000.0001) > apressurefile     = 'jra55/jra55_pres',
(PID.TID 0000.0001) > tidePotfile       = 'jra55/tide',
(PID.TID 0000.0001) > uwindfile         = 'jra55/jra55_u10m',
(PID.TID 0000.0001) > vwindfile         = 'jra55/jra55_v10m',
(PID.TID 0000.0001) > runofffile        = 'runoff1p2472-360x180x12.bin',
(PID.TID 0000.0001) >#
(PID.TID 0000.0001) > precipstartdate1  = 19790101,
(PID.TID 0000.0001) > precipstartdate2  = 013000,
(PID.TID 0000.0001) > precipperiod      = 10800.0,
(PID.TID 0000.0001) > atempstartdate1   = 19790101,
(PID.TID 0000.0001) > atempstartdate2   = 000000,
(PID.TID 0000.0001) > atempperiod       = 10800.0,
(PID.TID 0000.0001) > aqhstartdate1     = 19790101,
(PID.TID 0000.0001) > aqhstartdate2     = 000000,
(PID.TID 0000.0001) > aqhperiod         = 10800.0,
(PID.TID 0000.0001) > swdownstartdate1  = 19790101,
(PID.TID 0000.0001) > swdownstartdate2  = 013000,
(PID.TID 0000.0001) > swdownperiod      = 10800.0,
(PID.TID 0000.0001) > lwdownstartdate1  = 19790101,
(PID.TID 0000.0001) > lwdownstartdate2  = 013000,
(PID.TID 0000.0001) > lwdownperiod      = 10800.0,
(PID.TID 0000.0001) > apressurestartdate1  = 19790101,
(PID.TID 0000.0001) > apressurestartdate2  = 000000,
(PID.TID 0000.0001) > apressureperiod      = 10800.0,
(PID.TID 0000.0001) > tidePotstartdate1  = 19790101,
(PID.TID 0000.0001) > tidePotstartdate2  = 003000,
(PID.TID 0000.0001) > tidePotperiod      = 3600.0,
(PID.TID 0000.0001) > uwindstartdate1   = 19790101,
(PID.TID 0000.0001) > uwindstartdate2   = 000000,
(PID.TID 0000.0001) > uwindperiod       = 10800.0,
(PID.TID 0000.0001) > vwindstartdate1   = 19790101,
(PID.TID 0000.0001) > vwindstartdate2   = 000000,
(PID.TID 0000.0001) > vwindperiod       = 10800.0,
(PID.TID 0000.0001) ># "*period=-12" specifies monthly-mean forcing
(PID.TID 0000.0001) > runoffperiod      = -12,
(PID.TID 0000.0001) > &
(PID.TID 0000.0001) >#
(PID.TID 0000.0001) > &EXF_NML_03
(PID.TID 0000.0001) > exf_offset_atemp  = 273.15,
(PID.TID 0000.0001) > exf_inscal_swdown = -1.,
(PID.TID 0000.0001) > exf_inscal_lwdown = -1.,
(PID.TID 0000.0001) ># 1/365/24/3600 yr/s conversion, runoff [m/yr --> m/s]
(PID.TID 0000.0001) > exf_inscal_runoff = 3.1710e-08,
(PID.TID 0000.0001) ># divide by rhonil (1029 kg/m^3) to convert from Pa to m^2/s^2
(PID.TID 0000.0001) > exf_inscal_tidePot = .00097181729834791059,
(PID.TID 0000.0001) > &
(PID.TID 0000.0001) >#
(PID.TID 0000.0001) > &EXF_NML_04
(PID.TID 0000.0001) >#if in global lat/lon, need interp, comment out runoff_interpMethod
(PID.TID 0000.0001) >#if already in aste compact format, set runoff_interpMethod=0
(PID.TID 0000.0001) ># runoff_interpMethod = 0,
(PID.TID 0000.0001) >#
(PID.TID 0000.0001) > precip_lon0       = 0.0D0,
(PID.TID 0000.0001) > precip_lon_inc    = 0.5625D0,
(PID.TID 0000.0001) > precip_lat0       = -89.57009D0,
(PID.TID 0000.0001) > precip_lat_inc    = 0.556914D0, 0.560202D0, 0.560946D0, 0.561227D0, 0.561363D0,
(PID.TID 0000.0001) >                     0.561440D0, 0.561487D0, 0.561518D0, 0.561539D0, 0.561554D0,
(PID.TID 0000.0001) >                     0.561566D0, 0.561575D0, 0.561582D0, 0.561587D0, 0.561592D0,
(PID.TID 0000.0001) >                     289*0.561619268965519,
(PID.TID 0000.0001) >                     0.561592D0, 0.561587D0, 0.561582D0, 0.561575D0, 0.561566D0,
(PID.TID 0000.0001) >                     0.561554D0, 0.561539D0, 0.561518D0, 0.561487D0, 0.561440D0,
(PID.TID 0000.0001) >                     0.561363D0, 0.561227D0, 0.560946D0, 0.560202D0, 0.556914D0,
(PID.TID 0000.0001) > precip_nlon       = 640,
(PID.TID 0000.0001) > precip_nlat       = 320,
(PID.TID 0000.0001) >#
(PID.TID 0000.0001) > atemp_lon0        = 0.0D0,
(PID.TID 0000.0001) > atemp_lon_inc     = 0.5625D0,
(PID.TID 0000.0001) > atemp_lat0        = -89.57009D0,
(PID.TID 0000.0001) > atemp_lat_inc     = 0.556914D0, 0.560202D0, 0.560946D0, 0.561227D0, 0.561363D0,
(PID.TID 0000.0001) >                     0.561440D0, 0.561487D0, 0.561518D0, 0.561539D0, 0.561554D0,
(PID.TID 0000.0001) >                     0.561566D0, 0.561575D0, 0.561582D0, 0.561587D0, 0.561592D0,
(PID.TID 0000.0001) >                     289*0.561619268965519,
(PID.TID 0000.0001) >                     0.561592D0, 0.561587D0, 0.561582D0, 0.561575D0, 0.561566D0,
(PID.TID 0000.0001) >                     0.561554D0, 0.561539D0, 0.561518D0, 0.561487D0, 0.561440D0,
(PID.TID 0000.0001) >                     0.561363D0, 0.561227D0, 0.560946D0, 0.560202D0, 0.556914D0,
(PID.TID 0000.0001) > atemp_nlon        = 640,
(PID.TID 0000.0001) > atemp_nlat        = 320,
(PID.TID 0000.0001) >#
(PID.TID 0000.0001) > aqh_lon0          = 0.0D0,
(PID.TID 0000.0001) > aqh_lon_inc       = 0.5625D0,
(PID.TID 0000.0001) > aqh_lat0          = -89.57009D0,
(PID.TID 0000.0001) > aqh_lat_inc       = 0.556914D0, 0.560202D0, 0.560946D0, 0.561227D0, 0.561363D0,
(PID.TID 0000.0001) >                     0.561440D0, 0.561487D0, 0.561518D0, 0.561539D0, 0.561554D0,
(PID.TID 0000.0001) >                     0.561566D0, 0.561575D0, 0.561582D0, 0.561587D0, 0.561592D0,
(PID.TID 0000.0001) >                     289*0.561619268965519,
(PID.TID 0000.0001) >                     0.561592D0, 0.561587D0, 0.561582D0, 0.561575D0, 0.561566D0,
(PID.TID 0000.0001) >                     0.561554D0, 0.561539D0, 0.561518D0, 0.561487D0, 0.561440D0,
(PID.TID 0000.0001) >                     0.561363D0, 0.561227D0, 0.560946D0, 0.560202D0, 0.556914D0,
(PID.TID 0000.0001) > aqh_nlon          = 640,
(PID.TID 0000.0001) > aqh_nlat          = 320,
(PID.TID 0000.0001) >#
(PID.TID 0000.0001) > swdown_lon0       = 0.0D0,
(PID.TID 0000.0001) > swdown_lon_inc    = 0.5625D0,
(PID.TID 0000.0001) > swdown_lat0       = -89.57009D0,
(PID.TID 0000.0001) > swdown_lat_inc    = 0.556914D0, 0.560202D0, 0.560946D0, 0.561227D0, 0.561363D0,
(PID.TID 0000.0001) >                     0.561440D0, 0.561487D0, 0.561518D0, 0.561539D0, 0.561554D0,
(PID.TID 0000.0001) >                     0.561566D0, 0.561575D0, 0.561582D0, 0.561587D0, 0.561592D0,
(PID.TID 0000.0001) >                     289*0.561619268965519,
(PID.TID 0000.0001) >                     0.561592D0, 0.561587D0, 0.561582D0, 0.561575D0, 0.561566D0,
(PID.TID 0000.0001) >                     0.561554D0, 0.561539D0, 0.561518D0, 0.561487D0, 0.561440D0,
(PID.TID 0000.0001) >                     0.561363D0, 0.561227D0, 0.560946D0, 0.560202D0, 0.556914D0,
(PID.TID 0000.0001) > swdown_nlon       = 640,
(PID.TID 0000.0001) > swdown_nlat       = 320,
(PID.TID 0000.0001) >#
(PID.TID 0000.0001) > lwdown_lon0       = 0.0D0,
(PID.TID 0000.0001) > lwdown_lon_inc    = 0.5625D0,
(PID.TID 0000.0001) > lwdown_lat0       = -89.57009D0,
(PID.TID 0000.0001) > lwdown_lat_inc    = 0.556914D0, 0.560202D0, 0.560946D0, 0.561227D0, 0.561363D0,
(PID.TID 0000.0001) >                     0.561440D0, 0.561487D0, 0.561518D0, 0.561539D0, 0.561554D0,
(PID.TID 0000.0001) >                     0.561566D0, 0.561575D0, 0.561582D0, 0.561587D0, 0.561592D0,
(PID.TID 0000.0001) >                     289*0.561619268965519,
(PID.TID 0000.0001) >                     0.561592D0, 0.561587D0, 0.561582D0, 0.561575D0, 0.561566D0,
(PID.TID 0000.0001) >                     0.561554D0, 0.561539D0, 0.561518D0, 0.561487D0, 0.561440D0,
(PID.TID 0000.0001) >                     0.561363D0, 0.561227D0, 0.560946D0, 0.560202D0, 0.556914D0,
(PID.TID 0000.0001) > lwdown_nlon       = 640,
(PID.TID 0000.0001) > lwdown_nlat       = 320,
(PID.TID 0000.0001) >#
(PID.TID 0000.0001) > apressure_lon0       = 0.0D0,
(PID.TID 0000.0001) > apressure_lon_inc    = 0.5625D0,
(PID.TID 0000.0001) > apressure_lat0       = -89.57009D0,
(PID.TID 0000.0001) > apressure_lat_inc    = 0.556914D0, 0.560202D0, 0.560946D0, 0.561227D0, 0.561363D0,
(PID.TID 0000.0001) >                     0.561440D0, 0.561487D0, 0.561518D0, 0.561539D0, 0.561554D0,
(PID.TID 0000.0001) >                     0.561566D0, 0.561575D0, 0.561582D0, 0.561587D0, 0.561592D0,
(PID.TID 0000.0001) >                     289*0.561619268965519,
(PID.TID 0000.0001) >                     0.561592D0, 0.561587D0, 0.561582D0, 0.561575D0, 0.561566D0,
(PID.TID 0000.0001) >                     0.561554D0, 0.561539D0, 0.561518D0, 0.561487D0, 0.561440D0,
(PID.TID 0000.0001) >                     0.561363D0, 0.561227D0, 0.560946D0, 0.560202D0, 0.556914D0,
(PID.TID 0000.0001) > apressure_nlon       = 640,
(PID.TID 0000.0001) > apressure_nlat       = 320,
(PID.TID 0000.0001) >#
(PID.TID 0000.0001) > tidePot_lon0       = 0.0D0,
(PID.TID 0000.0001) > tidePot_lon_inc    = 0.5625D0,
(PID.TID 0000.0001) > tidePot_lat0       = -89.57009D0,
(PID.TID 0000.0001) > tidePot_lat_inc    = 0.556914D0, 0.560202D0, 0.560946D0, 0.561227D0, 0.561363D0,
(PID.TID 0000.0001) >                     0.561440D0, 0.561487D0, 0.561518D0, 0.561539D0, 0.561554D0,
(PID.TID 0000.0001) >                     0.561566D0, 0.561575D0, 0.561582D0, 0.561587D0, 0.561592D0,
(PID.TID 0000.0001) >                     289*0.561619268965519,
(PID.TID 0000.0001) >                     0.561592D0, 0.561587D0, 0.561582D0, 0.561575D0, 0.561566D0,
(PID.TID 0000.0001) >                     0.561554D0, 0.561539D0, 0.561518D0, 0.561487D0, 0.561440D0,
(PID.TID 0000.0001) >                     0.561363D0, 0.561227D0, 0.560946D0, 0.560202D0, 0.556914D0,
(PID.TID 0000.0001) > tidePot_nlon       = 640,
(PID.TID 0000.0001) > tidePot_nlat       = 320,
(PID.TID 0000.0001) >#
(PID.TID 0000.0001) > uwind_lon0        = 0.0D0,
(PID.TID 0000.0001) > uwind_lon_inc     = 0.5625D0,
(PID.TID 0000.0001) > uwind_lat0        = -89.57009D0,
(PID.TID 0000.0001) > uwind_lat_inc     = 0.556914D0, 0.560202D0, 0.560946D0, 0.561227D0, 0.561363D0,
(PID.TID 0000.0001) >                     0.561440D0, 0.561487D0, 0.561518D0, 0.561539D0, 0.561554D0,
(PID.TID 0000.0001) >                     0.561566D0, 0.561575D0, 0.561582D0, 0.561587D0, 0.561592D0,
(PID.TID 0000.0001) >                     289*0.561619268965519,
(PID.TID 0000.0001) >                     0.561592D0, 0.561587D0, 0.561582D0, 0.561575D0, 0.561566D0,
(PID.TID 0000.0001) >                     0.561554D0, 0.561539D0, 0.561518D0, 0.561487D0, 0.561440D0,
(PID.TID 0000.0001) >                     0.561363D0, 0.561227D0, 0.560946D0, 0.560202D0, 0.556914D0,
(PID.TID 0000.0001) > uwind_nlon        = 640,
(PID.TID 0000.0001) > uwind_nlat        = 320,
(PID.TID 0000.0001) >#
(PID.TID 0000.0001) > vwind_lon0        = 0.0D0,
(PID.TID 0000.0001) > vwind_lon_inc     = 0.5625D0,
(PID.TID 0000.0001) > vwind_lat0        = -89.57009D0,
(PID.TID 0000.0001) > vwind_lat_inc     = 0.556914D0, 0.560202D0, 0.560946D0, 0.561227D0, 0.561363D0,
(PID.TID 0000.0001) >                     0.561440D0, 0.561487D0, 0.561518D0, 0.561539D0, 0.561554D0,
(PID.TID 0000.0001) >                     0.561566D0, 0.561575D0, 0.561582D0, 0.561587D0, 0.561592D0,
(PID.TID 0000.0001) >                     289*0.561619268965519,
(PID.TID 0000.0001) >                     0.561592D0, 0.561587D0, 0.561582D0, 0.561575D0, 0.561566D0,
(PID.TID 0000.0001) >                     0.561554D0, 0.561539D0, 0.561518D0, 0.561487D0, 0.561440D0,
(PID.TID 0000.0001) >                     0.561363D0, 0.561227D0, 0.560946D0, 0.560202D0, 0.556914D0,
(PID.TID 0000.0001) > vwind_nlon        = 640,
(PID.TID 0000.0001) > vwind_nlat        = 320,
(PID.TID 0000.0001) >#
(PID.TID 0000.0001) > runoff_lon0       = 0.50D0,
(PID.TID 0000.0001) > runoff_lon_inc    = 1.0D0,
(PID.TID 0000.0001) > runoff_lat0       = -89.5D0,
(PID.TID 0000.0001) > runoff_lat_inc    = 179*1.,
(PID.TID 0000.0001) > runoff_nlon       = 360,
(PID.TID 0000.0001) > runoff_nlat       = 180,
(PID.TID 0000.0001) > &
(PID.TID 0000.0001) >#
(PID.TID 0000.0001) > &EXF_NML_OBCS
(PID.TID 0000.0001) >  obcsSstartdate1   = 20021215,
(PID.TID 0000.0001) >  obcsSstartdate2   = 060000,
(PID.TID 0000.0001) >  obcsSperiod       = 2629800.0,
(PID.TID 0000.0001) >#
(PID.TID 0000.0001) >  obcsNstartdate1   = 20021215,
(PID.TID 0000.0001) >  obcsNstartdate2   = 060000,
(PID.TID 0000.0001) >  obcsNperiod       = 2629800.0,
(PID.TID 0000.0001) > &
(PID.TID 0000.0001) 
(PID.TID 0000.0001) EXF_READPARMS: reading EXF_NML_01
(PID.TID 0000.0001) EXF_READPARMS: reading EXF_NML_02
(PID.TID 0000.0001) EXF_READPARMS: reading EXF_NML_03
(PID.TID 0000.0001) EXF_READPARMS: reading EXF_NML_04
(PID.TID 0000.0001) EXF_READPARMS: reading EXF_NML_OBCS
(PID.TID 0000.0001) EXF_READPARMS: finished reading data.exf
(PID.TID 0000.0001)  OBCS_READPARMS: opening data.obcs
(PID.TID 0000.0001)  OPEN_COPY_DATA_FILE: opening file data.obcs
(PID.TID 0000.0001) // =======================================================
(PID.TID 0000.0001) // Parameter file "data.obcs"
(PID.TID 0000.0001) // =======================================================
(PID.TID 0000.0001) ># ***************
(PID.TID 0000.0001) ># Open boundaries
(PID.TID 0000.0001) ># ***************
(PID.TID 0000.0001) > &OBCS_PARM01
(PID.TID 0000.0001) >OB_Jnorth = 2160*537,
(PID.TID 0000.0001) >OB_Jsouth = 2160*8,
(PID.TID 0000.0001) >#
(PID.TID 0000.0001) > useOBCSprescribe=.TRUE.,
(PID.TID 0000.0001) ># useOBCSsponge=.true.,
(PID.TID 0000.0001) > OBCS_monSelect = 3,
(PID.TID 0000.0001) ># >0: use 1rst O. upwind adv-scheme @ OB (=1: only if outflow)
(PID.TID 0000.0001) > OBCS_u1_adv_T = 1,
(PID.TID 0000.0001) > OBCS_u1_adv_S = 1,
(PID.TID 0000.0001) >#
(PID.TID 0000.0001) > OBSsFile='OBSs_2160x100x26.bin',
(PID.TID 0000.0001) > OBStFile='OBSt_2160x100x26.bin',
(PID.TID 0000.0001) > OBSuFile='OBSu_2160x100x26.bin',
(PID.TID 0000.0001) > OBSvFile='OBSv_2160x100x26.bin',
(PID.TID 0000.0001) >#
(PID.TID 0000.0001) > OBNsFile='OBNs_2160x100x26.bin',
(PID.TID 0000.0001) > OBNtFile='OBNt_2160x100x26.bin',
(PID.TID 0000.0001) > OBNuFile='OBNu_2160x100x26.bin',
(PID.TID 0000.0001) > OBNvFile='OBNv_2160x100x26.bin',
(PID.TID 0000.0001) ># Balancing
(PID.TID 0000.0001) > useOBCSbalance = .TRUE.,
(PID.TID 0000.0001) > OBCS_balanceFacN = -1,
(PID.TID 0000.0001) > OBCS_balanceFacS = -1,
(PID.TID 0000.0001) >## *****************************************
(PID.TID 0000.0001) >## Tidal BC parameters
(PID.TID 0000.0001) >## *****************************************
(PID.TID 0000.0001) > useOBCStides = .TRUE.,
(PID.TID 0000.0001) >##components   = M2       S2     N2       K2       K1      O1       P1       Q1       Mf         Mm
(PID.TID 0000.0001) >##periods (hr) = 12.4206  12     12.6583  11.9672  23.9345 25.8193  24.0659  26.8684  327.8599   661.31
(PID.TID 0000.0001) >##period(sec)  = 44714.165 43200.001 45570.054 43082.05 86164.077 92949.636 86637.2 96726.086 1180295.5 2380715.9
(PID.TID 0000.0001) >##components      m2        s2        n2        k2        k1        o1        p1        q1        mf        mm        m4        ms4       mn4
(PID.TID 0000.0001) >##period (hr): 12.420601 12.000000 12.658348 11.967236 23.934466 25.819343 24.065889 26.868357 327.859874 661.309962 6.210303 6.103339 6.269178
(PID.TID 0000.0001) >##period (s):  44714.165192 43200.001287 45570.053512 43082.050319 86164.077005 92949.635701 86637.199772 96726.085703 1180295.545550 2380715.863587 22357.090551 21972.021930 22569.042448
(PID.TID 0000.0001) > tidalPeriod  = 44714.165 43200.001 45570.054 43082.050 86164.077 92949.636 86637.200 96726.086 1180295.546 2380715.864 22357.091 21972.022 22569.042,
(PID.TID 0000.0001) > OBSamFile='OBSam_2160x13.bin',
(PID.TID 0000.0001) > OBNamFile='OBNam_2160x13.bin',
(PID.TID 0000.0001) > OBSphFile='OBSph_2160x13.bin',
(PID.TID 0000.0001) > OBNphFile='OBNph_2160x13.bin',
(PID.TID 0000.0001) > &
(PID.TID 0000.0001) ># *****************************************
(PID.TID 0000.0001) ># Sponge Layer Parameters.
(PID.TID 0000.0001) ># *****************************************
(PID.TID 0000.0001) > &OBCS_PARM03
(PID.TID 0000.0001) ># Urelaxobcsinner=2629800.E0,
(PID.TID 0000.0001) ># Urelaxobcsbound=43200.E0,
(PID.TID 0000.0001) >#
(PID.TID 0000.0001) ># Vrelaxobcsinner=2629800.E0,
(PID.TID 0000.0001) ># Vrelaxobcsbound=43200.E0,
(PID.TID 0000.0001) >#
(PID.TID 0000.0001) ># spongeThickness=16,
(PID.TID 0000.0001) > &
(PID.TID 0000.0001) 
(PID.TID 0000.0001)  OBCS_READPARMS: finished reading data.obcs
(PID.TID 0000.0001)  OB_indexUnset = /* unset OB index value (i.e. no OB) */
(PID.TID 0000.0001)                       0
(PID.TID 0000.0001)     ;
(PID.TID 0000.0001)  Northern OB global indices : OB_Jnorth =
(PID.TID 0000.0001)  2160 @      537                            /* I =  1:*** */
(PID.TID 0000.0001)  Southern OB global indices : OB_Jsouth =
(PID.TID 0000.0001)  2160 @        8                            /* I =  1:*** */
(PID.TID 0000.0001)  Eastern  OB global indices : OB_Ieast =
(PID.TID 0000.0001)   540 @        0                            /* J =  1:540 */
(PID.TID 0000.0001)  Western  OB global indices : OB_Iwest =
(PID.TID 0000.0001)   540 @        0                            /* J =  1:540 */
(PID.TID 0000.0001) 
(PID.TID 0000.0001)  KPP_READPARMS: opening data.kpp
(PID.TID 0000.0001)  OPEN_COPY_DATA_FILE: opening file data.kpp
(PID.TID 0000.0001) // =======================================================
(PID.TID 0000.0001) // Parameter file "data.kpp"
(PID.TID 0000.0001) // =======================================================
(PID.TID 0000.0001) ># KPP parameters
(PID.TID 0000.0001) > &KPP_PARM01
(PID.TID 0000.0001) >### KPPmixingMaps   = .FALSE.,
(PID.TID 0000.0001) >### KPPwriteState   = .FALSE.,
(PID.TID 0000.0001) >### kpp_dumpFreq    = 0.,
(PID.TID 0000.0001) >### kpp_tavefreq    = 0.,
(PID.TID 0000.0001) >### Ricr            = 0.3559,
(PID.TID 0000.0001) >### Riinfty         = 0.6998,
(PID.TID 0000.0001) > &
(PID.TID 0000.0001) 
(PID.TID 0000.0001)  KPP_READPARMS ; starts to read KPP_PARM01
(PID.TID 0000.0001)  KPP_READPARMS ; read KPP_PARM01 : OK
(PID.TID 0000.0001)  KPP_READPARMS: finished reading data.kpp
(PID.TID 0000.0001)  DIAGNOSTICS_READPARMS: opening data.diagnostics
(PID.TID 0000.0001)  OPEN_COPY_DATA_FILE: opening file data.diagnostics
(PID.TID 0000.0001) // =======================================================
(PID.TID 0000.0001) // Parameter file "data.diagnostics"
(PID.TID 0000.0001) // =======================================================
(PID.TID 0000.0001) ># Diagnostic Package Choices
(PID.TID 0000.0001) >#-----------------
(PID.TID 0000.0001) ># for each output-stream:
(PID.TID 0000.0001) >#  filename(n) : prefix of the output file name (only 8.c long) for outp.stream n
(PID.TID 0000.0001) >#  frequency(n):< 0 : write snap-shot output every multiple of |frequency| (iter)
(PID.TID 0000.0001) >#               > 0 : write time-average output every multiple of frequency (iter)
(PID.TID 0000.0001) >#  levels(:,n) : list of levels to write to file (Notes: declared as REAL)
(PID.TID 0000.0001) >#                 when this entry is missing, select all common levels of this list
(PID.TID 0000.0001) >#  fields(:,n) : list of diagnostics fields (8.c) (see "available_diagnostics" file
(PID.TID 0000.0001) >#                 for the list of all available diag. in this particular config)
(PID.TID 0000.0001) >#--------------------------------------------------------------------
(PID.TID 0000.0001) >#
(PID.TID 0000.0001) > &diagnostics_list
(PID.TID 0000.0001) >#
(PID.TID 0000.0001) >   dumpatlast = .TRUE.,
(PID.TID 0000.0001) >#
(PID.TID 0000.0001) >#---
(PID.TID 0000.0001) >  frequency(1) = 3600.0,
(PID.TID 0000.0001) >   fields(1:5,1) = 'ETAN', 'oceTAUX', 'oceTAUY', 'EXFuwind', 'EXFvwind',
(PID.TID 0000.0001) >   filename(1) = 'diags/surface',
(PID.TID 0000.0001) >#---
(PID.TID 0000.0001) >  frequency(2) = 3600.0,
(PID.TID 0000.0001) >   fields(1:5,2) = 'THETA', 'SALT', 'UVEL', 'VVEL', 'WVEL',
(PID.TID 0000.0001) >   filename(2) = 'diags/interior',
(PID.TID 0000.0001) >#   levels(1:55,2) =  1., 2., 3., 4., 5., 6., 7., 8., 9.,10.,11.,13.,15.,
(PID.TID 0000.0001) >#                     17.,19.,21.,23.,25.,27.,29.,31.,33.,35.,37.,39.,41.,43.,45.,
(PID.TID 0000.0001) >#                     47.,49.,51.,53.,55.,57.,59.,61.,63.,65.,67.,69.,71.,73.,75.,
(PID.TID 0000.0001) >#                     77.,79.,81.,83.,85.,87.,89.,91.,93.,95.,97.,99.,
(PID.TID 0000.0001) > /
(PID.TID 0000.0001) >#
(PID.TID 0000.0001) >#
(PID.TID 0000.0001) ># Parameter for Diagnostics of per level statistics:
(PID.TID 0000.0001) >#-----------------
(PID.TID 0000.0001) ># for each output-stream:
(PID.TID 0000.0001) >#  stat_fname(n) : prefix of the output file name (only 8.c long) for outp.stream n
(PID.TID 0000.0001) >#  stat_freq(n):< 0 : write snap-shot output every |stat_freq| seconds
(PID.TID 0000.0001) >#               > 0 : write time-average output every stat_freq seconds
(PID.TID 0000.0001) >#  stat_phase(n)    : write at time = stat_phase + multiple of |stat_freq|
(PID.TID 0000.0001) >#  stat_region(:,n) : list of "regions" (default: 1 region only=global)
(PID.TID 0000.0001) >#  stat_fields(:,n) : list of diagnostics fields (8.c) (see "available_diagnostics.log"
(PID.TID 0000.0001) >#                 file for the list of all available diag. in this particular config)
(PID.TID 0000.0001) >#-----------------
(PID.TID 0000.0001) > &DIAG_STATIS_PARMS
(PID.TID 0000.0001) ># diagSt_regMaskFile='basin_masks_eccollc_90x50.bin',
(PID.TID 0000.0001) ># nSetRegMskFile=1,
(PID.TID 0000.0001) ># set_regMask(1)= 1,  1,  1,  1,  1,  1,  1,  1,  1,
(PID.TID 0000.0001) >#                 1,  1,  1,  1,  1,  1,  1,  1
(PID.TID 0000.0001) ># val_regMask(1)= 1., 2., 3., 4., 5., 6., 7., 8., 9.,
(PID.TID 0000.0001) >#                10.,11.,12.,13.,14.,15.,16.,17.
(PID.TID 0000.0001) >##---
(PID.TID 0000.0001) ># stat_fields(1,1)= 'ETAN    ','ETANSQ  ','DETADT2 ',
(PID.TID 0000.0001) >#                   'UVEL    ','VVEL    ','WVEL    ',
(PID.TID 0000.0001) >#                   'THETA   ','SALT    ',
(PID.TID 0000.0001) >#    stat_fname(1)= 'dynStDiag',
(PID.TID 0000.0001) >#     stat_freq(1)= 3153600.,
(PID.TID 0000.0001) ># stat_region(1,1)=  1, 2, 3, 4, 5, 6, 7, 8, 9,
(PID.TID 0000.0001) >#                   10,11,12,13,14,15,16,17
(PID.TID 0000.0001) >##---
(PID.TID 0000.0001) ># stat_fields(1,2)= 'oceTAUX ','oceTAUY ',
(PID.TID 0000.0001) >#                   'surForcT','surForcS','TFLUX   ','SFLUX   ',
(PID.TID 0000.0001) >#                   'oceQnet ','oceSflux','oceFWflx',
(PID.TID 0000.0001) >#    stat_fname(2)= 'surfStDiag',
(PID.TID 0000.0001) >#     stat_freq(2)= 3153600.,
(PID.TID 0000.0001) ># stat_region(1,2)=  1, 2, 3, 4, 5, 6, 7, 8, 9,
(PID.TID 0000.0001) >#                   10,11,12,13,14,15,16,17
(PID.TID 0000.0001) > /
(PID.TID 0000.0001) 
(PID.TID 0000.0001) S/R DIAGNOSTICS_READPARMS, read namelist "diagnostics_list": start
(PID.TID 0000.0001) S/R DIAGNOSTICS_READPARMS, read namelist "diagnostics_list": OK
(PID.TID 0000.0001) S/R DIAGNOSTICS_READPARMS, read namelist "DIAG_STATIS_PARMS": start
(PID.TID 0000.0001) S/R DIAGNOSTICS_READPARMS, read namelist "DIAG_STATIS_PARMS": OK
(PID.TID 0000.0001)  DIAGNOSTICS_READPARMS: global parameter summary:
(PID.TID 0000.0001)  dumpAtLast = /* always write time-ave diags at the end */
(PID.TID 0000.0001)                   T
(PID.TID 0000.0001)     ;
(PID.TID 0000.0001)  diag_mnc =   /* write NetCDF output files */
(PID.TID 0000.0001)                   F
(PID.TID 0000.0001)     ;
(PID.TID 0000.0001)  useMissingValue = /* put MissingValue where mask = 0 */
(PID.TID 0000.0001)                   F
(PID.TID 0000.0001)     ;
(PID.TID 0000.0001)  diagCG_maxIters = /* max number of iters in diag_cg2d */
(PID.TID 0000.0001)                    1000
(PID.TID 0000.0001)     ;
(PID.TID 0000.0001)  diagCG_resTarget = /* residual target for diag_cg2d */
(PID.TID 0000.0001)                 1.000000000000000E-07
(PID.TID 0000.0001)     ;
(PID.TID 0000.0001)  diagCG_pcOffDFac = /* preconditioner off-diagonal factor */
(PID.TID 0000.0001)                 9.611687812379854E-01
(PID.TID 0000.0001)     ;
(PID.TID 0000.0001) -----------------------------------------------------
(PID.TID 0000.0001)  DIAGNOSTICS_READPARMS: active diagnostics summary:
(PID.TID 0000.0001) -----------------------------------------------------
(PID.TID 0000.0001) Creating Output Stream: diags/surface
(PID.TID 0000.0001) Output Frequency:       3600.000000 ; Phase:           0.000000
(PID.TID 0000.0001)  Averaging Freq.:       3600.000000 , Phase:           0.000000 , Cycle:   1
(PID.TID 0000.0001)  missing value: -9.990000000000E+02
(PID.TID 0000.0001)  Levels:    will be set later
(PID.TID 0000.0001)  Fields:    ETAN     oceTAUX  oceTAUY  EXFuwind EXFvwind
(PID.TID 0000.0001) Creating Output Stream: diags/interior
(PID.TID 0000.0001) Output Frequency:       3600.000000 ; Phase:           0.000000
(PID.TID 0000.0001)  Averaging Freq.:       3600.000000 , Phase:           0.000000 , Cycle:   1
(PID.TID 0000.0001)  missing value: -9.990000000000E+02
(PID.TID 0000.0001)  Levels:    will be set later
(PID.TID 0000.0001)  Fields:    THETA    SALT     UVEL     VVEL     WVEL
(PID.TID 0000.0001) -----------------------------------------------------
(PID.TID 0000.0001)  DIAGNOSTICS_READPARMS: statistics diags. summary:
(PID.TID 0000.0001) -----------------------------------------------------
(PID.TID 0000.0001) 
(PID.TID 0000.0001) SET_PARMS: done
(PID.TID 0000.0001)  MDS_READVEC_LOC: open file: delYFile
(PID.TID 0000.0001) S/R LOAD_GRID_SPACING: delY loaded from file: delYFile
(PID.TID 0000.0001) Enter INI_VERTICAL_GRID: setInterFDr=    T ; setCenterDr=    F
(PID.TID 0000.0001) %MON XC_max                       =   6.9791666666678E+00
(PID.TID 0000.0001) %MON XC_min                       =  -8.2979166666667E+01
(PID.TID 0000.0001) %MON XC_mean                      =  -3.8000000000000E+01
(PID.TID 0000.0001) %MON XC_sd                        =   2.5980759329244E+01
(PID.TID 0000.0001) %MON XG_max                       =   6.9583333333345E+00
(PID.TID 0000.0001) %MON XG_min                       =  -8.3000000000000E+01
(PID.TID 0000.0001) %MON XG_mean                      =  -3.8020833333333E+01
(PID.TID 0000.0001) %MON XG_sd                        =   2.5980759329244E+01
(PID.TID 0000.0001) %MON DXC_max                      =   4.1396408443605E+03
(PID.TID 0000.0001) %MON DXC_min                      =   3.3595207907282E+03
(PID.TID 0000.0001) %MON DXC_mean                     =   3.7639154747743E+03
(PID.TID 0000.0001) %MON DXC_sd                       =   2.2707285978599E+02
(PID.TID 0000.0001) %MON DXF_max                      =   4.1396408443605E+03
(PID.TID 0000.0001) %MON DXF_min                      =   3.3595207907282E+03
(PID.TID 0000.0001) %MON DXF_mean                     =   3.7639154747743E+03
(PID.TID 0000.0001) %MON DXF_sd                       =   2.2707285978599E+02
(PID.TID 0000.0001) %MON DXG_max                      =   4.1402617210449E+03
(PID.TID 0000.0001) %MON DXG_min                      =   3.3603032053391E+03
(PID.TID 0000.0001) %MON DXG_mean                     =   3.7646389662878E+03
(PID.TID 0000.0001) %MON DXG_sd                       =   2.2702689694182E+02
(PID.TID 0000.0001) %MON DXV_max                      =   4.1402617210449E+03
(PID.TID 0000.0001) %MON DXV_min                      =   3.3603032053391E+03
(PID.TID 0000.0001) %MON DXV_mean                     =   3.7646389662878E+03
(PID.TID 0000.0001) %MON DXV_sd                       =   2.2702689694182E+02
(PID.TID 0000.0001) %MON YC_max                       =   4.3512569427490E+01
(PID.TID 0000.0001) %MON YC_min                       =   2.6667170524597E+01
(PID.TID 0000.0001) %MON YC_mean                      =   3.5365724839105E+01
(PID.TID 0000.0001) %MON YC_sd                        =   4.8759077938983E+00
(PID.TID 0000.0001) %MON YG_max                       =   4.3498512268066E+01
(PID.TID 0000.0001) %MON YG_min                       =   2.6650054931641E+01
(PID.TID 0000.0001) %MON YG_mean                      =   3.5350098383868E+01
(PID.TID 0000.0001) %MON YG_sd                        =   4.8767967628688E+00
(PID.TID 0000.0001) %MON DYC_max                      =   3.8052066241563E+03
(PID.TID 0000.0001) %MON DYC_min                      =   3.1263150971014E+03
(PID.TID 0000.0001) %MON DYC_mean                     =   3.4746196212554E+03
(PID.TID 0000.0001) %MON DYC_sd                       =   1.9733005957431E+02
(PID.TID 0000.0001) %MON DYF_max                      =   3.8057367596608E+03
(PID.TID 0000.0001) %MON DYF_min                      =   3.1256789344960E+03
(PID.TID 0000.0001) %MON DYF_mean                     =   3.4746196212554E+03
(PID.TID 0000.0001) %MON DYF_sd                       =   1.9787288708661E+02
(PID.TID 0000.0001) %MON DYG_max                      =   3.8057367596608E+03
(PID.TID 0000.0001) %MON DYG_min                      =   3.1256789344960E+03
(PID.TID 0000.0001) %MON DYG_mean                     =   3.4746196212554E+03
(PID.TID 0000.0001) %MON DYG_sd                       =   1.9787288708661E+02
(PID.TID 0000.0001) %MON DYU_max                      =   3.8052066241563E+03
(PID.TID 0000.0001) %MON DYU_min                      =   3.1263150971014E+03
(PID.TID 0000.0001) %MON DYU_mean                     =   3.4746196212554E+03
(PID.TID 0000.0001) %MON DYU_sd                       =   1.9733005957431E+02
(PID.TID 0000.0001) %MON RA_max                       =   1.5754383098869E+07
(PID.TID 0000.0001) %MON RA_min                       =   1.0500783260236E+07
(PID.TID 0000.0001) %MON RA_mean                      =   1.3123104411967E+07
(PID.TID 0000.0001) %MON RA_sd                        =   1.5313828268276E+06
(PID.TID 0000.0001) %MON RAW_max                      =   1.5754383098869E+07
(PID.TID 0000.0001) %MON RAW_min                      =   1.0500783260236E+07
(PID.TID 0000.0001) %MON RAW_mean                     =   1.3123104411967E+07
(PID.TID 0000.0001) %MON RAW_sd                       =   1.5313828268276E+06
(PID.TID 0000.0001) %MON RAS_max                      =   1.5749824888079E+07
(PID.TID 0000.0001) %MON RAS_min                      =   1.0505367034035E+07
(PID.TID 0000.0001) %MON RAS_mean                     =   1.3125365861136E+07
(PID.TID 0000.0001) %MON RAS_sd                       =   1.5281062334216E+06
(PID.TID 0000.0001) %MON RAZ_max                      =   1.5749824888079E+07
(PID.TID 0000.0001) %MON RAZ_min                      =   1.0505367034035E+07
(PID.TID 0000.0001) %MON RAZ_mean                     =   1.3125365861136E+07
(PID.TID 0000.0001) %MON RAZ_sd                       =   1.5281062334216E+06
(PID.TID 0000.0001) %MON AngleCS_max                  =   1.0000000000000E+00
(PID.TID 0000.0001) %MON AngleCS_min                  =   1.0000000000000E+00
(PID.TID 0000.0001) %MON AngleCS_mean                 =   1.0000000000000E+00
(PID.TID 0000.0001) %MON AngleCS_sd                   =   0.0000000000000E+00
(PID.TID 0000.0001) %MON AngleSN_max                  =   0.0000000000000E+00
(PID.TID 0000.0001) %MON AngleSN_min                  =   0.0000000000000E+00
(PID.TID 0000.0001) %MON AngleSN_mean                 =   0.0000000000000E+00
(PID.TID 0000.0001) %MON AngleSN_sd                   =   0.0000000000000E+00
(PID.TID 0000.0001)  MDS_READ_FIELD: opening global file: bathy.bin
(PID.TID 0000.0001) // =======================================================
(PID.TID 0000.0001) // Field Model R_low (ini_masks_etc)
(PID.TID 0000.0001) // CMIN =         -8.535130615234375E+02
(PID.TID 0000.0001) // CMAX =         -5.000000000000000E+00
(PID.TID 0000.0001) // CINT =          3.142640968605324E+01
(PID.TID 0000.0001) // SYMBOLS (CMIN->CMAX): -abcdefghijklmnopqrstuvwxyz+
(PID.TID 0000.0001) //                  0.0: .
(PID.TID 0000.0001) // RANGE I (Lo:Hi:Step):(    -3:    94:     1)
(PID.TID 0000.0001) // RANGE J (Lo:Hi:Step):(    94:    -3:    -1)
(PID.TID 0000.0001) // RANGE K (Lo:Hi:Step):(   1:   1:   1)
(PID.TID 0000.0001) // =======================================================
(PID.TID 0000.0001) K =   1
(PID.TID 0000.0001) //                I=6       I=16      I=26      I=36      I=46      I=56      I=66      I=76      I=86
(PID.TID 0000.0001) // |--J--|321012345|789012345|789012345|789012345|789012345|789012345|789012345|789012345|789012345|78901234
(PID.TID 0000.0001) //     94 ..............................................+++++++zzzzzzzzzzzzzzzzyvrpnlkjhfecbbbbbbbbbbbbbbbbb
(PID.TID 0000.0001) //     93 ..............................................++++++++zzzzzzzzzzzzzzzyvronlkjhfecbbbbbbbbbbbbbbbbb
(PID.TID 0000.0001) //     92 ..............................................+++++++zzzzzzzzzzzzzzzzywronlkjhfedcbbbbbbbbbbbbbbbb
(PID.TID 0000.0001) //     91 ..............................................+++++++zzzzzzzzzzzzzzzzywrpnlkjhfeedbbbbbbbbbbbbbbbb
(PID.TID 0000.0001) //     90 ...............................................+++++++zzzzzzzzzzzzzzzywspnlkihfeedcbbbbbbbbbbbbbbb
(PID.TID 0000.0001) //     89 ...............................................++++++++zzzzzzzzzzzzzzyxspnlkigeeedcbbbbbbbbbbbbbbb
(PID.TID 0000.0001) //     88 ...............................................+++++++++zzzzzzzzzzzzzyxtpnmkjgeeedcbbbbbbbbbbbbbbb
(PID.TID 0000.0001) //     87 ................................................+++++++zzzzzzzzzzzzzzyxupnmkjheeedcbbbbbbbbbbbbbbb
(PID.TID 0000.0001) //     86 ................................................++++++++++++zzzzzzzzzyxvpnmljheeedcbbbbbbbbbbbbbbb
(PID.TID 0000.0001) //     85 .................................................+++z++z++++zzzzzzzzzyxwqnmljheeeddbbbbbbbbbbbbbbb
(PID.TID 0000.0001) //     84 .................................................+++++zzzzzzzzzzzzzzzyywrnmljhfeeddcbbbbbbbbbbbbbb
(PID.TID 0000.0001) //     83 .................................................++++++zzzzzzzzzzzzzzyywtnmljifeeedcbbbbbbbbbbbbbb
(PID.TID 0000.0001) //     82 ..................................................++++++zzzzzzzzzzzzzyyxuomljigeeedcbbbbbbbbbbbbbb
(PID.TID 0000.0001) //     81 ..................................................+++++++zzzzzzzzzzzzyyxvpmkkigeeddccbbbbbbbbbbbbb
(PID.TID 0000.0001) //     80 ..................................................+++++++zzzzzzzzzzzzyyxvrnlkjgeeddccbbbbbbbbbbbbb
(PID.TID 0000.0001) //     79 ...................................................+++++zzzzzzzzzzzzzyyxwtpnmkheeddccbbbbbbbbbbbbb
(PID.TID 0000.0001) //     78 ...................................................++++++zzzzzzzzzzzzzyywurpnlhfeddccbbbbbbbbbbbbb
(PID.TID 0000.0001) //     77 ....................................................++++zzzzzzzzzzzzzzyywvspnkifeddccbbbbbbbbbbbbb
(PID.TID 0000.0001) //     76 ....................................................+++++zzzzzzzzzzzzzyyxvsomkifeddccbbbbbbbbbbbbb
(PID.TID 0000.0001) //     75 ....................................................++++++zzzzzzzzzzzzyyxvsomkifeddcccbbbbbbbbbbbb
(PID.TID 0000.0001) //     74 .....................................................++++++zzzzzzzzzzzyyxwtpmkifeddcccbbbbbbbbbbbb
(PID.TID 0000.0001) //     73 .....................................................++++++zzzzzzzzzzzyyywuqnligedddccbbbbbbbbbbbb
(PID.TID 0000.0001) //     72 ......................................................+++++++zzzzzzzzzzyywuroljhfeddccbbbbbbbbbbbb
(PID.TID 0000.0001) //     71 ......................................................+++++++++zzzzzzzzyyxvspmkhfeddccbbbbbbbbbbbb
(PID.TID 0000.0001) //     70 .......................................................++++++++z+zzzzzzyyxvtqnligeddcccbbbbbbbbbbb
(PID.TID 0000.0001) //     69 .......................................................+++++++++zzzzzzzyyxvtromjgeddccbbbbbbbbbbbb
(PID.TID 0000.0001) //     68 ........................................................+++++++++zzzzzzyyxwurpnkhfdcccbbbbbbbbbbbb
(PID.TID 0000.0001) //     67 .........................................................+++++z++zzzzzzyyxwusqolifdbcbbbbbbbbbabbb
(PID.TID 0000.0001) //     66 .........................................................+++++z++zzzzzzzyywusqomjgecbbbbbbbbbaaaab
(PID.TID 0000.0001) //     65 .........................................................++++++++zzzzzzzyywvtrpnkhecbbbaabbaaaaaaa
(PID.TID 0000.0001) //     64 ..........................................................++++++++zzzzzzyyxvtrpnlhfccbbbabbaaaaaaa
(PID.TID 0000.0001) //     63 ..........................................................++++++++zzzzzzyyxvtrpnlifccbbbabaaaaaaaa
(PID.TID 0000.0001) //     62 ...........................................................+++++++zzzzzzyyxvurpoljgccbbbbaaaaaaaaa
(PID.TID 0000.0001) //     61 ............................................................+++++++zzzzzyyxwusqomkgdcbbbaaaaaaaaaa
(PID.TID 0000.0001) //     60 .............................................................++++++zzzzzyyxwusqomkhdcbbbaaaaaaaaaa
(PID.TID 0000.0001) //     59 .............................................................++++++zzzzzyyywusqonliecbbbaaaaaaaaaa
(PID.TID 0000.0001) //     58 ..............................................................++++++zzzzyyyxvtrpnljfcbbbaaaaaaa-aa
(PID.TID 0000.0001) //     57 ..............................................................++++++zzzzzyyxvtrpnljgcbbbaaaaaaa-aa
(PID.TID 0000.0001) //     56 ..............................................................++++++zzzzzyyxvtrpnljgdbbbbaaaaaa-a-
(PID.TID 0000.0001) //     55 ...............................................................++++zzzzzzyyxvusqnljgdbbbbbaaaaa---
(PID.TID 0000.0001) //     54 ...............................................................++++zzzzzzyyxwusqomkhdbbbbbaaaaaa--
(PID.TID 0000.0001) //     53 ...............................................................+++++zzzzzyyywusqomkhdbbbbbbaaaaa--
(PID.TID 0000.0001) //     52 ............................................................++++++++zzzzzyyywusqomkidbbbbbbbaaaa--
(PID.TID 0000.0001) //     51 ............................................................++++++++zzzzzyyywutqpnliebabbbbbbaaa--
(PID.TID 0000.0001) //     50 .............................................................+++++++zzzzzzyywvtrpnlifcabbbbbbaaaa-
(PID.TID 0000.0001) //     49 .............................................................++++++++zzzzzyyxvtrpnljfcabbccbbaaa--
(PID.TID 0000.0001) //     48 ............................................................+++++++++zzzzzyyxvtrpnljfcbbbcccbbaa--
(PID.TID 0000.0001) //     47 ............................................................+++++++++zzzzzyyxvtrpnmjfcbbcccccbaaa-
(PID.TID 0000.0001) //     46 ............................................................+++++++++zzzzzyyxvusqnmjgcbbccdcccbaaa
(PID.TID 0000.0001) //     45 .............................................................++++++zzzzzzzzyxvusqnljfcbbccddccbbaa
(PID.TID 0000.0001) //     44 ..............................................................+++++zzzzzzzzyxwusqnmjgcbbcddddccbaa
(PID.TID 0000.0001) //     43 ..............................................................++++z+zzzzzzzyxwusqnmkgcbbcdedddcbba
(PID.TID 0000.0001) //     42 ..............................................................++++z+zzzzzzzyxwusqomkgcbbcdeeeddcbb
(PID.TID 0000.0001) //     41 ...............................................................+++++zzzzzzzyxwusqomjgcbbcdeeeeddcb
(PID.TID 0000.0001) //     40 ...............................................................++++++zzzzzzyxwusqomkgdbbcdeeeeeddb
(PID.TID 0000.0001) //     39 ................................................................++++++zzzzzyxwusqomkhdbbcdeeffeedc
(PID.TID 0000.0001) //     38 ................................................................+++++++zzzzyxwutqomkhdbbcdefffffed
(PID.TID 0000.0001) //     37 .................................................................++++++zzzzyywutqomkhdbbceefgggffe
(PID.TID 0000.0001) //     36 .................................................................++++++zzzzyxwusqomkhdcbceffghggff
(PID.TID 0000.0001) //     35 .................................................................+++++++zzzyywusqomkhdccdefghhhhgg
(PID.TID 0000.0001) //     34 ..................................................................++++++zzzyywusqomkhddcdefghhihhh
(PID.TID 0000.0001) //     33 ..................................................................++++++zzzzywusqomkhddddefghiiiih
(PID.TID 0000.0001) //     32 ...................................................................+++++zzzyywusqomkheddeefgiijjji
(PID.TID 0000.0001) //     31 ...................................................................++++++zzyywusqomkieddeefhijkkkj
(PID.TID 0000.0001) //     30 ...................................................................+++++zzzzywusqomkieddeefhijkllk
(PID.TID 0000.0001) //     29 ....................................................................+++++zzzywusqomkieddeefhiklmmm
(PID.TID 0000.0001) //     28 ....................................................................+++++zzzywusqomkheddeefhjkmnon
(PID.TID 0000.0001) //     27 ....................................................................+++++zzzywusqomkheddeeghjlmopp
(PID.TID 0000.0001) //     26 .....................................................................++++zzzywusqomkheddeeghjkmoqq
(PID.TID 0000.0001) //     25 ....................................................................+++++zzzxwusqomkhdcddefhiknprr
(PID.TID 0000.0001) //     24 ....................................................................++++++zzywusqomkhdcddeghiknqss
(PID.TID 0000.0001) //     23 .....................................................................+++++zzywusqomkhcddefghiknqux
(PID.TID 0000.0001) //     22 .....................................................................+++++zzywusqomjhdcddefhilnrzz
(PID.TID 0000.0001) //     21 ......................................................................++++zzywusqomjhdddeefhiknrzz
(PID.TID 0000.0001) //     20 ......................................................................++++zzywusqomjgdddefghilnszz
(PID.TID 0000.0001) //     19 .......................................................................+++zzywusqomjgddddefgiknsyz
(PID.TID 0000.0001) //     18 .......................................................................+++zzywurqomkgddddefgijntyz
(PID.TID 0000.0001) //     17 ........................................................................++zzywtrpomkhddddefghjmtxy
(PID.TID 0000.0001) //     16 ........................................................................+++zywurpomkhdcddefghjmuwy
(PID.TID 0000.0001) //     15 .........................................................................++zxwtrpomkhdcccdfghjnvwx
(PID.TID 0000.0001) //     14 .........................................................................++zxwurpnmkhecccdfghjmuwx
(PID.TID 0000.0001) //     13 .........................................................................++zxwtrpnmkhecccdfghiltwx
(PID.TID 0000.0001) //     12 ..........................................................................+zxwurpnlkiecccdfggikqxx
(PID.TID 0000.0001) //     11 ..........................................................................++yvtrpnljhfdccdefghjmvw
(PID.TID 0000.0001) //     10 ..........................................................................++yvtrpnljhecccdefghjlru
(PID.TID 0000.0001) //      9 ..........................................................................++yvtrpnljhedccdeffgikos
(PID.TID 0000.0001) //      8 ..........................................................................++yvtrpnligedccdfffgiknr
(PID.TID 0000.0001) //      7 ..................................................................................................
(PID.TID 0000.0001) //      6 ..................................................................................................
(PID.TID 0000.0001) //      5 ..................................................................................................
(PID.TID 0000.0001) //      4 ..................................................................................................
(PID.TID 0000.0001) //      3 ..................................................................................................
(PID.TID 0000.0001) //      2 ..................................................................................................
(PID.TID 0000.0001) //      1 ..................................................................................................
(PID.TID 0000.0001) //      0 ..................................................................................................
(PID.TID 0000.0001) //     -1 ..................................................................................................
(PID.TID 0000.0001) //     -2 ..................................................................................................
(PID.TID 0000.0001) //     -3 ..................................................................................................
(PID.TID 0000.0001) // =======================================================
(PID.TID 0000.0001) // END OF FIELD                                          =
(PID.TID 0000.0001) // =======================================================
(PID.TID 0000.0001) 
(PID.TID 0000.0001) // =======================================================
(PID.TID 0000.0001) // Field Model Ro_surf (ini_masks_etc)
(PID.TID 0000.0001) // CMIN =          1.000000000000000E+32
(PID.TID 0000.0001) // CMAX =         -1.000000000000000E+32
(PID.TID 0000.0001) // CINT =          0.000000000000000E+00
(PID.TID 0000.0001) // SYMBOLS (CMIN->CMAX): -abcdefghijklmnopqrstuvwxyz+
(PID.TID 0000.0001) //                  0.0: .
(PID.TID 0000.0001) // RANGE I (Lo:Hi:Step):(    -3:    94:     1)
(PID.TID 0000.0001) // RANGE J (Lo:Hi:Step):(    94:    -3:    -1)
(PID.TID 0000.0001) // RANGE K (Lo:Hi:Step):(   1:   1:   1)
(PID.TID 0000.0001) // =======================================================
(PID.TID 0000.0001) // =======================================================
(PID.TID 0000.0001) // END OF FIELD                                          =
(PID.TID 0000.0001) // =======================================================
(PID.TID 0000.0001) 
(PID.TID 0000.0001) // =======================================================
(PID.TID 0000.0001) // Field hFacC at iteration          0
(PID.TID 0000.0001) // CMIN =          1.000000000000000E+00
(PID.TID 0000.0001) // CMAX =          1.000000000000000E+00
(PID.TID 0000.0001) // CINT =          0.000000000000000E+00
(PID.TID 0000.0001) // SYMBOLS (CMIN->CMAX): -abcdefghijklmnopqrstuvwxyz+
(PID.TID 0000.0001) //                  0.0: .
(PID.TID 0000.0001) // RANGE I (Lo:Hi:Step):(    -3:    94:     1)
(PID.TID 0000.0001) // RANGE J (Lo:Hi:Step):(    94:    -3:    -1)
(PID.TID 0000.0001) // RANGE K (Lo:Hi:Step):(   1:   1:   1)
(PID.TID 0000.0001) // =======================================================
(PID.TID 0000.0001) // =======================================================
(PID.TID 0000.0001) // END OF FIELD                                          =
(PID.TID 0000.0001) // =======================================================
(PID.TID 0000.0001) 
(PID.TID 0000.0001) // =======================================================
(PID.TID 0000.0001) // Field hFacW at iteration          0
(PID.TID 0000.0001) // CMIN =          1.000000000000000E+00
(PID.TID 0000.0001) // CMAX =          1.000000000000000E+00
(PID.TID 0000.0001) // CINT =          0.000000000000000E+00
(PID.TID 0000.0001) // SYMBOLS (CMIN->CMAX): -abcdefghijklmnopqrstuvwxyz+
(PID.TID 0000.0001) //                  0.0: .
(PID.TID 0000.0001) // RANGE I (Lo:Hi:Step):(    -3:    94:     1)
(PID.TID 0000.0001) // RANGE J (Lo:Hi:Step):(    94:    -3:    -1)
(PID.TID 0000.0001) // RANGE K (Lo:Hi:Step):(   1:   1:   1)
(PID.TID 0000.0001) // =======================================================
(PID.TID 0000.0001) // =======================================================
(PID.TID 0000.0001) // END OF FIELD                                          =
(PID.TID 0000.0001) // =======================================================
(PID.TID 0000.0001) 
(PID.TID 0000.0001) // =======================================================
(PID.TID 0000.0001) // Field hFacS at iteration          0
(PID.TID 0000.0001) // CMIN =          1.000000000000000E+00
(PID.TID 0000.0001) // CMAX =          1.000000000000000E+00
(PID.TID 0000.0001) // CINT =          0.000000000000000E+00
(PID.TID 0000.0001) // SYMBOLS (CMIN->CMAX): -abcdefghijklmnopqrstuvwxyz+
(PID.TID 0000.0001) //                  0.0: .
(PID.TID 0000.0001) // RANGE I (Lo:Hi:Step):(    -3:    94:     1)
(PID.TID 0000.0001) // RANGE J (Lo:Hi:Step):(    94:    -3:    -1)
(PID.TID 0000.0001) // RANGE K (Lo:Hi:Step):(   1:   1:   1)
(PID.TID 0000.0001) // =======================================================
(PID.TID 0000.0001) // =======================================================
(PID.TID 0000.0001) // END OF FIELD                                          =
(PID.TID 0000.0001) // =======================================================
(PID.TID 0000.0001) 
(PID.TID 0000.0001) 
(PID.TID 0000.0001) // =======================================================
(PID.TID 0000.0001) // Calendar configuration >>> START <<<
(PID.TID 0000.0001) // =======================================================
(PID.TID 0000.0001) 
(PID.TID 0000.0001) modelstart = /* Start time of the model integration [s] */
(PID.TID 0000.0001)                 0.000000000000000E+00
(PID.TID 0000.0001)     ;
(PID.TID 0000.0001) modelend  = /* End time of the model integration [s] */
(PID.TID 0000.0001)                 3.600000000000000E+03
(PID.TID 0000.0001)     ;
(PID.TID 0000.0001) modelStep = /* Time interval for a model forward step [s] */
(PID.TID 0000.0001)                 2.400000000000000E+02
(PID.TID 0000.0001)     ;
(PID.TID 0000.0001) usingGregorianCalendar= /* Calendar Type: Gregorian Calendar */
(PID.TID 0000.0001)                   T
(PID.TID 0000.0001)     ;
(PID.TID 0000.0001) usingJulianCalendar = /* Calendar Type: Julian Calendar */
(PID.TID 0000.0001)                   F
(PID.TID 0000.0001)     ;
(PID.TID 0000.0001) usingNoLeapYearCal  = /* Calendar Type: without Leap Year */
(PID.TID 0000.0001)                   F
(PID.TID 0000.0001)     ;
(PID.TID 0000.0001) usingModelCalendar  = /* Calendar Type: Model Calendar */
(PID.TID 0000.0001)                   F
(PID.TID 0000.0001)     ;
(PID.TID 0000.0001) modelStartDate YYYYMMDD = /* Model start date YYYY-MM-DD */
(PID.TID 0000.0001)                20030101
(PID.TID 0000.0001)     ;
(PID.TID 0000.0001)   modelStartDate HHMMSS = /* Model start date HH-MM-SS  */
(PID.TID 0000.0001)                       0
(PID.TID 0000.0001)     ;
(PID.TID 0000.0001) modelEndDate   YYYYMMDD = /* Model end date YYYY-MM-DD */
(PID.TID 0000.0001)                20030101
(PID.TID 0000.0001)     ;
(PID.TID 0000.0001)   modelEndDate   HHMMSS = /* Model end date HH-MM-SS  */
(PID.TID 0000.0001)                   10000
(PID.TID 0000.0001)     ;
(PID.TID 0000.0001) intyears = /* Number of calendar years affected by the integration */
(PID.TID 0000.0001)                       1
(PID.TID 0000.0001)     ;
(PID.TID 0000.0001) intmonths= /* Number of calendar months affected by the integration */
(PID.TID 0000.0001)                       1
(PID.TID 0000.0001)     ;
(PID.TID 0000.0001) intdays = /* Number of calendar days affected by the integration */
(PID.TID 0000.0001)                       1
(PID.TID 0000.0001)     ;
(PID.TID 0000.0001) modelIter0 = /* Base timestep number  */
(PID.TID 0000.0001)                       0
(PID.TID 0000.0001)     ;
(PID.TID 0000.0001) modelIterEnd = /* Final timestep number  */
(PID.TID 0000.0001)                      15
(PID.TID 0000.0001)     ;
(PID.TID 0000.0001) modelIntSteps= /* Number of model timesteps  */
(PID.TID 0000.0001)                      15
(PID.TID 0000.0001)     ;
(PID.TID 0000.0001) 
(PID.TID 0000.0001) // =======================================================
(PID.TID 0000.0001) // Calendar configuration  >>> END <<<
(PID.TID 0000.0001) // =======================================================
(PID.TID 0000.0001) 
(PID.TID 0000.0001) GAD_INIT_FIXED: GAD_OlMinSize=  4  0  1
(PID.TID 0000.0001) 
(PID.TID 0000.0001) // ===================================
(PID.TID 0000.0001) // GAD parameters :
(PID.TID 0000.0001) // ===================================
(PID.TID 0000.0001) tempAdvScheme =   /* Temp. Horiz.Advection scheme selector */
(PID.TID 0000.0001)                       7
(PID.TID 0000.0001)     ;
(PID.TID 0000.0001) tempVertAdvScheme =   /* Temp. Vert. Advection scheme selector */
(PID.TID 0000.0001)                       7
(PID.TID 0000.0001)     ;
(PID.TID 0000.0001) tempMultiDimAdvec =   /* use Muti-Dim Advec method for Temp */
(PID.TID 0000.0001)                   T
(PID.TID 0000.0001)     ;
(PID.TID 0000.0001) tempSOM_Advection = /* use 2nd Order Moment Advection for Temp */
(PID.TID 0000.0001)                   F
(PID.TID 0000.0001)     ;
(PID.TID 0000.0001) AdamsBashforthGt = /* apply Adams-Bashforth extrapolation on Gt */
(PID.TID 0000.0001)                   F
(PID.TID 0000.0001)     ;
(PID.TID 0000.0001) AdamsBashforth_T = /* apply Adams-Bashforth extrapolation on Temp */
(PID.TID 0000.0001)                   F
(PID.TID 0000.0001)     ;
(PID.TID 0000.0001) saltAdvScheme =   /* Salt. Horiz.advection scheme selector */
(PID.TID 0000.0001)                       7
(PID.TID 0000.0001)     ;
(PID.TID 0000.0001) saltVertAdvScheme =   /* Salt. Vert. Advection scheme selector */
(PID.TID 0000.0001)                       7
(PID.TID 0000.0001)     ;
(PID.TID 0000.0001) saltMultiDimAdvec =   /* use Muti-Dim Advec method for Salt */
(PID.TID 0000.0001)                   T
(PID.TID 0000.0001)     ;
(PID.TID 0000.0001) saltSOM_Advection = /* use 2nd Order Moment Advection for Salt */
(PID.TID 0000.0001)                   F
(PID.TID 0000.0001)     ;
(PID.TID 0000.0001) AdamsBashforthGs = /* apply Adams-Bashforth extrapolation on Gs */
(PID.TID 0000.0001)                   F
(PID.TID 0000.0001)     ;
(PID.TID 0000.0001) AdamsBashforth_S = /* apply Adams-Bashforth extrapolation on Salt */
(PID.TID 0000.0001)                   F
(PID.TID 0000.0001)     ;
(PID.TID 0000.0001) // ===================================
(PID.TID 0000.0001) OBCS_INIT_FIXED: Setting OB indices in Overlap
(PID.TID 0000.0001)  Sets OBS(i,bi,bj=   91,  1,  1)=    8
(PID.TID 0000.0001)  Sets OBS(i,bi,bj=   92,  1,  1)=    8
(PID.TID 0000.0001)  Sets OBS(i,bi,bj=   93,  1,  1)=    8
(PID.TID 0000.0001)  Sets OBS(i,bi,bj=   94,  1,  1)=    8
(PID.TID 0000.0001) OBCS_INIT_FIXED: Setting OB indices in Overlap <= done
(PID.TID 0000.0001) 
(PID.TID 0000.0001) // =======================================================
(PID.TID 0000.0001) // External forcing (EXF) configuration >>> START <<<
(PID.TID 0000.0001) // =======================================================
(PID.TID 0000.0001) 
(PID.TID 0000.0001)  EXF general parameters:
(PID.TID 0000.0001) 
(PID.TID 0000.0001) exf_iprec = /* exf file precision */
(PID.TID 0000.0001)                      32
(PID.TID 0000.0001)     ;
(PID.TID 0000.0001) useExfYearlyFields = /* add extension _YEAR to input file names */
(PID.TID 0000.0001)                   T
(PID.TID 0000.0001)     ;
(PID.TID 0000.0001) twoDigitYear = /* use 2-digit year extension */
(PID.TID 0000.0001)                   F
(PID.TID 0000.0001)     ;
(PID.TID 0000.0001) useExfCheckRange = /* check for fields range */
(PID.TID 0000.0001)                   F
(PID.TID 0000.0001)     ;
(PID.TID 0000.0001) exf_output_interp = /* output directly interpolation result */
(PID.TID 0000.0001)                   F
(PID.TID 0000.0001)     ;
(PID.TID 0000.0001) exf_debugLev = /* select EXF-debug printing level */
(PID.TID 0000.0001)                       2
(PID.TID 0000.0001)     ;
(PID.TID 0000.0001) exf_monFreq  = /* EXF monitor frequency [ s ] */
(PID.TID 0000.0001)                 2.400000000000000E+02
(PID.TID 0000.0001)     ;
(PID.TID 0000.0001) repeatPeriod = /* period for cycling forcing dataset [ s ] */
(PID.TID 0000.0001)                 0.000000000000000E+00
(PID.TID 0000.0001)     ;
(PID.TID 0000.0001) climTempFreeze= /* Minimum climatological temperature [deg.C] */
(PID.TID 0000.0001)                -1.900000000000000E+00
(PID.TID 0000.0001)     ;
(PID.TID 0000.0001) windStressMax = /* Maximum absolute windstress [ Pa ] */
(PID.TID 0000.0001)                 2.000000000000000E+00
(PID.TID 0000.0001)     ;
(PID.TID 0000.0001) stressIsOnCgrid = /* set u,v_stress on Arakawa C-grid */
(PID.TID 0000.0001)                   F
(PID.TID 0000.0001)     ;
(PID.TID 0000.0001) rotateStressOnAgrid = /* rotate u,v_stress on Arakawa A-grid */
(PID.TID 0000.0001)                   F
(PID.TID 0000.0001)     ;
(PID.TID 0000.0001) cen2kel = /* conversion of deg. Centigrade to Kelvin [K] */
(PID.TID 0000.0001)                 2.731500000000000E+02
(PID.TID 0000.0001)     ;
(PID.TID 0000.0001) gravity_mks= /* gravitational acceleration [m/s^2] */
(PID.TID 0000.0001)                 9.810000000000000E+00
(PID.TID 0000.0001)     ;
(PID.TID 0000.0001) atmrho =  /* mean atmospheric density [kg/m^3] */
(PID.TID 0000.0001)                 1.200000000000000E+00
(PID.TID 0000.0001)     ;
(PID.TID 0000.0001) atmcp =  /* mean atmospheric specific heat [J/kg/K] */
(PID.TID 0000.0001)                 1.005000000000000E+03
(PID.TID 0000.0001)     ;
(PID.TID 0000.0001) flamb =  /* latent heat of evaporation [J/kg] */
(PID.TID 0000.0001)                 2.500000000000000E+06
(PID.TID 0000.0001)     ;
(PID.TID 0000.0001) flami =  /* latent heat of pure-ice melting [J/kg] */
(PID.TID 0000.0001)                 3.340000000000000E+05
(PID.TID 0000.0001)     ;
(PID.TID 0000.0001) cvapor_fac = /* const. for Saturation calculation [?] */
(PID.TID 0000.0001)                 6.403800000000000E+05
(PID.TID 0000.0001)     ;
(PID.TID 0000.0001) cvapor_exp = /* const. for Saturation calculation [?] */
(PID.TID 0000.0001)                 5.107400000000000E+03
(PID.TID 0000.0001)     ;
(PID.TID 0000.0001) cvapor_fac_ice= /* const. for Saturation calculation [?] */
(PID.TID 0000.0001)                 1.163780000000000E+07
(PID.TID 0000.0001)     ;
(PID.TID 0000.0001) cvapor_exp_ice= /* const. for Saturation calculation [?] */
(PID.TID 0000.0001)                 5.897800000000000E+03
(PID.TID 0000.0001)     ;
(PID.TID 0000.0001) humid_fac = /* humidity coef. in virtual temp. [(kg/kg)^-1] */
(PID.TID 0000.0001)                 6.060000000000000E-01
(PID.TID 0000.0001)     ;
(PID.TID 0000.0001) gamma_blk = /* adiabatic lapse rate [?] */
(PID.TID 0000.0001)                 1.000000000000000E-02
(PID.TID 0000.0001)     ;
(PID.TID 0000.0001) saltsat = /* reduction of Qsat over salty water [-] */
(PID.TID 0000.0001)                 9.800000000000000E-01
(PID.TID 0000.0001)     ;
(PID.TID 0000.0001) noNegativeEvap = /* prevent negative Evaporation */
(PID.TID 0000.0001)                   F
(PID.TID 0000.0001)     ;
(PID.TID 0000.0001) sstExtrapol = /* extrapolation coeff from lev. 1 & 2 to surf [-] */
(PID.TID 0000.0001)                 0.000000000000000E+00
(PID.TID 0000.0001)     ;
(PID.TID 0000.0001) cDrag_1 = /* coef used in drag calculation [?] */
(PID.TID 0000.0001)                 2.700000000000000E-03
(PID.TID 0000.0001)     ;
(PID.TID 0000.0001) cDrag_2 = /* coef used in drag calculation [?] */
(PID.TID 0000.0001)                 1.420000000000000E-04
(PID.TID 0000.0001)     ;
(PID.TID 0000.0001) cDrag_3 = /* coef used in drag calculation [?] */
(PID.TID 0000.0001)                 7.640000000000000E-05
(PID.TID 0000.0001)     ;
(PID.TID 0000.0001) cStanton_1 = /* coef used in Stanton number calculation [?] */
(PID.TID 0000.0001)                 3.270000000000000E-02
(PID.TID 0000.0001)     ;
(PID.TID 0000.0001) cStanton_2 = /* coef used in Stanton number calculation [?] */
(PID.TID 0000.0001)                 1.800000000000000E-02
(PID.TID 0000.0001)     ;
(PID.TID 0000.0001) cDalton = /* coef used in Dalton number calculation [?] */
(PID.TID 0000.0001)                 3.460000000000000E-02
(PID.TID 0000.0001)     ;
(PID.TID 0000.0001) exf_scal_BulkCdn= /* Drag coefficient scaling factor [-] */
(PID.TID 0000.0001)                 9.997000000000000E-01
(PID.TID 0000.0001)     ;
(PID.TID 0000.0001) zolmin = /* minimum stability parameter [?] */
(PID.TID 0000.0001)                -1.000000000000000E+02
(PID.TID 0000.0001)     ;
(PID.TID 0000.0001) psim_fac = /* coef used in turbulent fluxes calculation [-] */
(PID.TID 0000.0001)                 5.000000000000000E+00
(PID.TID 0000.0001)     ;
(PID.TID 0000.0001) zref =  /* reference height [ m ] */
(PID.TID 0000.0001)                 1.000000000000000E+01
(PID.TID 0000.0001)     ;
(PID.TID 0000.0001) hu =  /* height of mean wind [ m ] */
(PID.TID 0000.0001)                 1.000000000000000E+01
(PID.TID 0000.0001)     ;
(PID.TID 0000.0001) ht =  /* height of mean temperature [ m ] */
(PID.TID 0000.0001)                 2.000000000000000E+00
(PID.TID 0000.0001)     ;
(PID.TID 0000.0001) hq =  /* height of mean spec.humidity [ m ] */
(PID.TID 0000.0001)                 2.000000000000000E+00
(PID.TID 0000.0001)     ;
(PID.TID 0000.0001) uMin = /* minimum wind speed [m/s] */
(PID.TID 0000.0001)                 5.000000000000000E-01
(PID.TID 0000.0001)     ;
(PID.TID 0000.0001) useStabilityFct_overIce= /* transfert Coeffs over sea-ice depend on stability */
(PID.TID 0000.0001)                   F
(PID.TID 0000.0001)     ;
(PID.TID 0000.0001) exf_iceCd = /* drag coefficient over sea-ice (fixed) [-] */
(PID.TID 0000.0001)                 1.630000000000000E-03
(PID.TID 0000.0001)     ;
(PID.TID 0000.0001) exf_iceCe = /* transfert coeff. over sea-ice, for Evap (fixed) [-] */
(PID.TID 0000.0001)                 1.630000000000000E-03
(PID.TID 0000.0001)     ;
(PID.TID 0000.0001) exf_iceCh = /* transfert coeff. over sea-ice, Sens.Heat.(fixed)[-] */
(PID.TID 0000.0001)                 1.630000000000000E-03
(PID.TID 0000.0001)     ;
(PID.TID 0000.0001) exf_albedo =  /* Sea-water albedo [-] */
(PID.TID 0000.0001)                 1.000000000000000E-01
(PID.TID 0000.0001)     ;
(PID.TID 0000.0001) useExfZenAlbedo = /* Sea-water albedo varies with zenith angle */
(PID.TID 0000.0001)                   F
(PID.TID 0000.0001)     ;
(PID.TID 0000.0001) select_ZenAlbedo = /* Sea-water albedo computation method */
(PID.TID 0000.0001)                       0
(PID.TID 0000.0001)     ;
(PID.TID 0000.0001) useExfZenIncoming = /* compute incoming solar radiation */
(PID.TID 0000.0001)                   F
(PID.TID 0000.0001)     ;
(PID.TID 0000.0001) ocean_emissivity = /* longwave ocean-surface emissivity [-] */
(PID.TID 0000.0001)                 9.700176366843034E-01
(PID.TID 0000.0001)     ;
(PID.TID 0000.0001) ice_emissivity = /* longwave seaice emissivity [-] */
(PID.TID 0000.0001)                 9.500000000000000E-01
(PID.TID 0000.0001)     ;
(PID.TID 0000.0001) snow_emissivity = /* longwave snow  emissivity [-] */
(PID.TID 0000.0001)                 9.500000000000000E-01
(PID.TID 0000.0001)     ;
(PID.TID 0000.0001) 
(PID.TID 0000.0001)  EXF main CPP flags:
(PID.TID 0000.0001) 
(PID.TID 0000.0001) // USE_EXF_INTERPOLATION:              defined
(PID.TID 0000.0001) // ALLOW_ATM_TEMP:                     defined
(PID.TID 0000.0001) // ALLOW_ATM_WIND (useAtmWind):        defined
(PID.TID 0000.0001) // ALLOW_DOWNWARD_RADIATION:           defined
(PID.TID 0000.0001) // ALLOW_BULKFORMULAE:                 defined
(PID.TID 0000.0001) 
(PID.TID 0000.0001)    Zonal wind forcing starts at                          0.
(PID.TID 0000.0001)    Zonal wind forcing period is                      10800.
(PID.TID 0000.0001)    Zonal wind forcing repeat-cycle is                    0.
(PID.TID 0000.0001)    Zonal wind forcing is read from file:
(PID.TID 0000.0001)    >> jra55/jra55_u10m <<
(PID.TID 0000.0001)    interpolate "uwind" (method= 12 ):
(PID.TID 0000.0001)    lon0=   0.00000, nlon=   640, lon_inc= 0.5625000
(PID.TID 0000.0001)    lat0= -89.57009, nlat=   320, inc(min,max)= 0.55691 0.56162
(PID.TID 0000.0001) 
(PID.TID 0000.0001)    Meridional wind forcing starts at                     0.
(PID.TID 0000.0001)    Meridional wind forcing period is                 10800.
(PID.TID 0000.0001)    Meridional wind forcing repeat-cycle is               0.
(PID.TID 0000.0001)    Meridional wind forcing is read from file:
(PID.TID 0000.0001)    >> jra55/jra55_v10m <<
(PID.TID 0000.0001)    interpolate "vwind" (method= 22 ):
(PID.TID 0000.0001)    lon0=   0.00000, nlon=   640, lon_inc= 0.5625000
(PID.TID 0000.0001)    lat0= -89.57009, nlat=   320, inc(min,max)= 0.55691 0.56162
(PID.TID 0000.0001)     Interp. U & V comp. together: uvInterp_wind =    T
(PID.TID 0000.0001) 
(PID.TID 0000.0001)    Atmospheric temperature starts at                     0.
(PID.TID 0000.0001)    Atmospheric temperature period is                 10800.
(PID.TID 0000.0001)    Atmospheric temperature repeat-cycle is               0.
(PID.TID 0000.0001)    Atmospheric temperature is read from file:
(PID.TID 0000.0001)    >> jra55/jra55_tmp2m_degC <<
(PID.TID 0000.0001)    interpolate "atemp" (method=  1 ):
(PID.TID 0000.0001)    lon0=   0.00000, nlon=   640, lon_inc= 0.5625000
(PID.TID 0000.0001)    lat0= -89.57009, nlat=   320, inc(min,max)= 0.55691 0.56162
(PID.TID 0000.0001) 
(PID.TID 0000.0001)    Atmospheric specific humidity starts at               0.
(PID.TID 0000.0001)    Atmospheric specific humidity period is           10800.
(PID.TID 0000.0001)    Atmospheric specific humidity rep-cycle is            0.
(PID.TID 0000.0001)    Atmospheric specific humidity is read from file:
(PID.TID 0000.0001)    >> jra55/jra55_spfh2m <<
(PID.TID 0000.0001)    interpolate "aqh" (method=  1 ):
(PID.TID 0000.0001)    lon0=   0.00000, nlon=   640, lon_inc= 0.5625000
(PID.TID 0000.0001)    lat0= -89.57009, nlat=   320, inc(min,max)= 0.55691 0.56162
(PID.TID 0000.0001) 
(PID.TID 0000.0001) // ALLOW_READ_TURBFLUXES:          NOT defined
(PID.TID 0000.0001) // EXF_READ_EVAP:                  NOT defined
(PID.TID 0000.0001) 
(PID.TID 0000.0001)    Precipitation data starts at                       5400.
(PID.TID 0000.0001)    Precipitation data period is                      10800.
(PID.TID 0000.0001)    Precipitation data repeat-cycle is                    0.
(PID.TID 0000.0001)    Precipitation data is read from file:
(PID.TID 0000.0001)    >> jra55/jra55_rain <<
(PID.TID 0000.0001)    interpolate "precip" (method=  1 ):
(PID.TID 0000.0001)    lon0=   0.00000, nlon=   640, lon_inc= 0.5625000
(PID.TID 0000.0001)    lat0= -89.57009, nlat=   320, inc(min,max)= 0.55691 0.56162
(PID.TID 0000.0001) 
(PID.TID 0000.0001) // ALLOW_RUNOFF:                       defined
(PID.TID 0000.0001)    Runoff data period is                               -12.
(PID.TID 0000.0001)    Runoff data is read from file:
(PID.TID 0000.0001)    >> runoff1p2472-360x180x12.bin <<
(PID.TID 0000.0001)    interpolate "runoff" (method=  1 ):
(PID.TID 0000.0001)    lon0=   0.50000, nlon=   360, lon_inc= 1.0000000
(PID.TID 0000.0001)    lat0= -89.50000, nlat=   180, lat_inc= 1.0000000
(PID.TID 0000.0001) 
(PID.TID 0000.0001) // ALLOW_RUNOFTEMP:                NOT defined
(PID.TID 0000.0001) // ALLOW_SALTFLX:                      defined
(PID.TID 0000.0001) 
(PID.TID 0000.0001)    Downward shortwave flux starts at                  5400.
(PID.TID 0000.0001)    Downward shortwave flux period is                 10800.
(PID.TID 0000.0001)    Downward shortwave flux repeat-cycle is               0.
(PID.TID 0000.0001)    Downward shortwave flux is read from file:
(PID.TID 0000.0001)    >> jra55/jra55_dsw <<
(PID.TID 0000.0001)    interpolate "swdown" (method=  1 ):
(PID.TID 0000.0001)    lon0=   0.00000, nlon=   640, lon_inc= 0.5625000
(PID.TID 0000.0001)    lat0= -89.57009, nlat=   320, inc(min,max)= 0.55691 0.56162
(PID.TID 0000.0001) 
(PID.TID 0000.0001)    Downward longwave flux starts at                   5400.
(PID.TID 0000.0001)    Downward longwave flux period is                  10800.
(PID.TID 0000.0001)    Downward longwave flux repeat-cycle is                0.
(PID.TID 0000.0001)    Downward longwave flux is read from file:
(PID.TID 0000.0001)    >> jra55/jra55_dlw <<
(PID.TID 0000.0001)    interpolate "lwdown" (method=  1 ):
(PID.TID 0000.0001)    lon0=   0.00000, nlon=   640, lon_inc= 0.5625000
(PID.TID 0000.0001)    lat0= -89.57009, nlat=   320, inc(min,max)= 0.55691 0.56162
(PID.TID 0000.0001) 
(PID.TID 0000.0001)    Atmospheric pressure forcing starts at                0.
(PID.TID 0000.0001)    Atmospheric pressure forcing period is            10800.
(PID.TID 0000.0001)    Atmospheric pressure forcing rep-cycle is             0.
(PID.TID 0000.0001)    Atmospheric pressure forcing is read from file:
(PID.TID 0000.0001)    >> jra55/jra55_pres <<
(PID.TID 0000.0001)    interpolate "apressure" (method=  1 ):
(PID.TID 0000.0001)    lon0=   0.00000, nlon=   640, lon_inc= 0.5625000
(PID.TID 0000.0001)    lat0= -89.57009, nlat=   320, inc(min,max)= 0.55691 0.56162
(PID.TID 0000.0001) 
(PID.TID 0000.0001)    Tidal geopotential starts at                       1800.
(PID.TID 0000.0001)    Tidal geopotential period is                       3600.
(PID.TID 0000.0001)    Tidal geopotential repeat-cycle is                    0.
(PID.TID 0000.0001)    Tidal geopotential is read from file:
(PID.TID 0000.0001)    >> jra55/tide <<
(PID.TID 0000.0001)    interpolate "tidePot" (method=  1 ):
(PID.TID 0000.0001)    lon0=   0.00000, nlon=   640, lon_inc= 0.5625000
(PID.TID 0000.0001)    lat0= -89.57009, nlat=   320, inc(min,max)= 0.55691 0.56162
(PID.TID 0000.0001) 
(PID.TID 0000.0001) // =======================================================
(PID.TID 0000.0001) // External forcing (EXF) climatology configuration :
(PID.TID 0000.0001) // =======================================================
(PID.TID 0000.0001) 
(PID.TID 0000.0001) // ALLOW_CLIMSST_RELAXATION:       NOT defined
(PID.TID 0000.0001) 
(PID.TID 0000.0001) // ALLOW_CLIMSSS_RELAXATION:       NOT defined
(PID.TID 0000.0001) 
(PID.TID 0000.0001) // =======================================================
(PID.TID 0000.0001) // External forcing (EXF) configuration  >>> END <<<
(PID.TID 0000.0001) // =======================================================
(PID.TID 0000.0001) 
(PID.TID 0000.0001) ------------------------------------------------------------
(PID.TID 0000.0001) DIAGNOSTICS_SET_LEVELS: done
(PID.TID 0000.0001)  Total Nb of available Diagnostics: ndiagt=   213
(PID.TID 0000.0001)  write list of available Diagnostics to file: available_diagnostics.log
(PID.TID 0000.0001) SETDIAG: Allocate  1 x  1 Levels for Diagnostic #    23 ETAN
(PID.TID 0000.0001) SETDIAG: Allocate  1 x  1 Levels for Diagnostic #    80 oceTAUX
(PID.TID 0000.0001) SETDIAG: Allocate  1 x  1 Levels for Diagnostic #    81 oceTAUY
(PID.TID 0000.0001) SETDIAG: Allocate  1 x  1 Levels for Diagnostic #   185 EXFuwind
(PID.TID 0000.0001) SETDIAG: Allocate  1 x  1 Levels for Diagnostic #   186 EXFvwind
(PID.TID 0000.0001) SETDIAG: Allocate100 x  1 Levels for Diagnostic #    26 THETA
(PID.TID 0000.0001) SETDIAG: Allocate100 x  1 Levels for Diagnostic #    27 SALT
(PID.TID 0000.0001) SETDIAG: Allocate100 x  1 Levels for Diagnostic #    30 UVEL
(PID.TID 0000.0001) SETDIAG: Allocate100 x  1 Levels for Diagnostic #    31 VVEL
(PID.TID 0000.0001) SETDIAG: Allocate100 x  1 Levels for Diagnostic #    32 WVEL
(PID.TID 0000.0001)   space allocated for all diagnostics:     505 levels
(PID.TID 0000.0001)   set mate pointer for diag #    80  oceTAUX  , Parms: UU      U1 , mate:    81
(PID.TID 0000.0001)   set mate pointer for diag #    81  oceTAUY  , Parms: VV      U1 , mate:    80
(PID.TID 0000.0001)   set mate pointer for diag #    30  UVEL     , Parms: UUR     MR , mate:    31
(PID.TID 0000.0001)   set mate pointer for diag #    31  VVEL     , Parms: VVR     MR , mate:    30
(PID.TID 0000.0001) DIAGNOSTICS_SET_POINTERS: Set levels for Outp.Stream: diags/surface
(PID.TID 0000.0001)  Levels:       1.
(PID.TID 0000.0001) DIAGNOSTICS_SET_POINTERS: Set levels for Outp.Stream: diags/interior
(PID.TID 0000.0001)  Levels:       1.   2.   3.   4.   5.   6.   7.   8.   9.  10.  11.  12.  13.  14.  15.  16.  17.  18.  19.  20.
(PID.TID 0000.0001)  Levels:      21.  22.  23.  24.  25.  26.  27.  28.  29.  30.  31.  32.  33.  34.  35.  36.  37.  38.  39.  40.
(PID.TID 0000.0001)  Levels:      41.  42.  43.  44.  45.  46.  47.  48.  49.  50.  51.  52.  53.  54.  55.  56.  57.  58.  59.  60.
(PID.TID 0000.0001)  Levels:      61.  62.  63.  64.  65.  66.  67.  68.  69.  70.  71.  72.  73.  74.  75.  76.  77.  78.  79.  80.
(PID.TID 0000.0001)  Levels:      81.  82.  83.  84.  85.  86.  87.  88.  89.  90.  91.  92.  93.  94.  95.  96.  97.  98.  99. 100.
(PID.TID 0000.0001) DIAGNOSTICS_SET_POINTERS: done
(PID.TID 0000.0001) ------------------------------------------------------------
(PID.TID 0000.0001) DIAGSTATS_SET_REGIONS: define no region
(PID.TID 0000.0001) ------------------------------------------------------------
(PID.TID 0000.0001)   space allocated for all stats-diags:       0 levels
(PID.TID 0000.0001) DIAGSTATS_SET_POINTERS: done
(PID.TID 0000.0001) ------------------------------------------------------------
(PID.TID 0000.0001) %MON fCori_max                    =   1.0041453744604E-04
(PID.TID 0000.0001) %MON fCori_min                    =   6.5455127240189E-05
(PID.TID 0000.0001) %MON fCori_mean                   =   8.4108169069800E-05
(PID.TID 0000.0001) %MON fCori_sd                     =   1.0123559863785E-05
(PID.TID 0000.0001) %MON fCoriG_max                   =   1.0038858482075E-04
(PID.TID 0000.0001) %MON fCoriG_min                   =   6.5416191986868E-05
(PID.TID 0000.0001) %MON fCoriG_mean                  =   8.4075736074280E-05
(PID.TID 0000.0001) %MON fCoriG_sd                    =   1.0127339310370E-05
(PID.TID 0000.0001) %MON fCoriCos_max                 =   1.3032901623502E-04
(PID.TID 0000.0001) %MON fCoriCos_min                 =   1.0576836400510E-04
(PID.TID 0000.0001) %MON fCoriCos_mean                =   1.1849999056980E-04
(PID.TID 0000.0001) %MON fCoriCos_sd                  =   7.1489734356779E-06
(PID.TID 0000.0001) INI_CG2D: CG2D normalisation factor =  1.4987118910715993E-04
(PID.TID 0000.0001) INI_CG2D: cg2dTolerance = 7.057349561527589E-12 (Area=1.1301464310E+13)
(PID.TID 0000.0001) 
(PID.TID 0000.0001) // =======================================================
(PID.TID 0000.0001) // Model configuration
(PID.TID 0000.0001) // =======================================================
(PID.TID 0000.0001) //
(PID.TID 0000.0001) // "Physical" paramters ( PARM01 in namelist )
(PID.TID 0000.0001) //
(PID.TID 0000.0001) buoyancyRelation = /* Type of relation to get Buoyancy */
(PID.TID 0000.0001)               'OCEANIC'
(PID.TID 0000.0001)     ;
(PID.TID 0000.0001) fluidIsAir   =  /* fluid major constituent is Air */
(PID.TID 0000.0001)                   F
(PID.TID 0000.0001)     ;
(PID.TID 0000.0001) fluidIsWater =  /* fluid major constituent is Water */
(PID.TID 0000.0001)                   T
(PID.TID 0000.0001)     ;
(PID.TID 0000.0001) usingPCoords =  /* use p (or p*) vertical coordinate */
(PID.TID 0000.0001)                   F
(PID.TID 0000.0001)     ;
(PID.TID 0000.0001) usingZCoords =  /* use z (or z*) vertical coordinate */
(PID.TID 0000.0001)                   T
(PID.TID 0000.0001)     ;
(PID.TID 0000.0001) tRef =   /* Reference temperature profile ( oC or K ) */
(PID.TID 0000.0001)     5 @  1.889000000000000E+01,             /* K =  1:  5 */
(PID.TID 0000.0001)                 1.887000000000000E+01,      /* K =  6 */
(PID.TID 0000.0001)                 1.885000000000000E+01,      /* K =  7 */
(PID.TID 0000.0001)                 1.882000000000000E+01,      /* K =  8 */
(PID.TID 0000.0001)                 1.880000000000000E+01,      /* K =  9 */
(PID.TID 0000.0001)                 1.873000000000000E+01,      /* K = 10 */
(PID.TID 0000.0001)                 1.863000000000000E+01,      /* K = 11 */
(PID.TID 0000.0001)                 1.849000000000000E+01,      /* K = 12 */
(PID.TID 0000.0001)                 1.828000000000000E+01,      /* K = 13 */
(PID.TID 0000.0001)                 1.808000000000000E+01,      /* K = 14 */
(PID.TID 0000.0001)                 1.786000000000000E+01,      /* K = 15 */
(PID.TID 0000.0001)                 1.763000000000000E+01,      /* K = 16 */
(PID.TID 0000.0001)                 1.740000000000000E+01,      /* K = 17 */
(PID.TID 0000.0001)                 1.718000000000000E+01,      /* K = 18 */
(PID.TID 0000.0001)                 1.695000000000000E+01,      /* K = 19 */
(PID.TID 0000.0001)                 1.673000000000000E+01,      /* K = 20 */
(PID.TID 0000.0001)                 1.652000000000000E+01,      /* K = 21 */
(PID.TID 0000.0001)                 1.631000000000000E+01,      /* K = 22 */
(PID.TID 0000.0001)                 1.610000000000000E+01,      /* K = 23 */
(PID.TID 0000.0001)                 1.589000000000000E+01,      /* K = 24 */
(PID.TID 0000.0001)                 1.569000000000000E+01,      /* K = 25 */
(PID.TID 0000.0001)                 1.549000000000000E+01,      /* K = 26 */
(PID.TID 0000.0001)                 1.528000000000000E+01,      /* K = 27 */
(PID.TID 0000.0001)                 1.508000000000000E+01,      /* K = 28 */
(PID.TID 0000.0001)                 1.488000000000000E+01,      /* K = 29 */
(PID.TID 0000.0001)                 1.467000000000000E+01,      /* K = 30 */
(PID.TID 0000.0001)                 1.447000000000000E+01,      /* K = 31 */
(PID.TID 0000.0001)                 1.425000000000000E+01,      /* K = 32 */
(PID.TID 0000.0001)                 1.403000000000000E+01,      /* K = 33 */
(PID.TID 0000.0001)                 1.380000000000000E+01,      /* K = 34 */
(PID.TID 0000.0001)                 1.355000000000000E+01,      /* K = 35 */
(PID.TID 0000.0001)                 1.329000000000000E+01,      /* K = 36 */
(PID.TID 0000.0001)                 1.301000000000000E+01,      /* K = 37 */
(PID.TID 0000.0001)                 1.273000000000000E+01,      /* K = 38 */
(PID.TID 0000.0001)                 1.242000000000000E+01,      /* K = 39 */
(PID.TID 0000.0001)                 1.211000000000000E+01,      /* K = 40 */
(PID.TID 0000.0001)                 1.178000000000000E+01,      /* K = 41 */
(PID.TID 0000.0001)                 1.143000000000000E+01,      /* K = 42 */
(PID.TID 0000.0001)                 1.107000000000000E+01,      /* K = 43 */
(PID.TID 0000.0001)                 1.070000000000000E+01,      /* K = 44 */
(PID.TID 0000.0001)                 1.031000000000000E+01,      /* K = 45 */
(PID.TID 0000.0001)                 9.930000000000000E+00,      /* K = 46 */
(PID.TID 0000.0001)                 9.529999999999999E+00,      /* K = 47 */
(PID.TID 0000.0001)                 9.109999999999999E+00,      /* K = 48 */
(PID.TID 0000.0001)                 8.710000000000001E+00,      /* K = 49 */
(PID.TID 0000.0001)                 8.289999999999999E+00,      /* K = 50 */
(PID.TID 0000.0001)                 7.890000000000000E+00,      /* K = 51 */
(PID.TID 0000.0001)                 7.510000000000000E+00,      /* K = 52 */
(PID.TID 0000.0001)                 7.130000000000000E+00,      /* K = 53 */
(PID.TID 0000.0001)                 6.780000000000000E+00,      /* K = 54 */
(PID.TID 0000.0001)                 6.440000000000000E+00,      /* K = 55 */
(PID.TID 0000.0001)                 6.110000000000000E+00,      /* K = 56 */
(PID.TID 0000.0001)                 5.810000000000000E+00,      /* K = 57 */
(PID.TID 0000.0001)                 5.510000000000000E+00,      /* K = 58 */
(PID.TID 0000.0001)                 5.230000000000000E+00,      /* K = 59 */
(PID.TID 0000.0001)                 4.970000000000000E+00,      /* K = 60 */
(PID.TID 0000.0001)                 4.730000000000000E+00,      /* K = 61 */
(PID.TID 0000.0001)                 4.510000000000000E+00,      /* K = 62 */
(PID.TID 0000.0001)                 4.300000000000000E+00,      /* K = 63 */
(PID.TID 0000.0001)                 4.110000000000000E+00,      /* K = 64 */
(PID.TID 0000.0001)                 3.940000000000000E+00,      /* K = 65 */
(PID.TID 0000.0001)                 3.780000000000000E+00,      /* K = 66 */
(PID.TID 0000.0001)                 3.630000000000000E+00,      /* K = 67 */
(PID.TID 0000.0001)                 3.500000000000000E+00,      /* K = 68 */
(PID.TID 0000.0001)                 3.380000000000000E+00,      /* K = 69 */
(PID.TID 0000.0001)                 3.250000000000000E+00,      /* K = 70 */
(PID.TID 0000.0001)                 3.140000000000000E+00,      /* K = 71 */
(PID.TID 0000.0001)                 3.040000000000000E+00,      /* K = 72 */
(PID.TID 0000.0001)                 2.940000000000000E+00,      /* K = 73 */
(PID.TID 0000.0001)                 2.830000000000000E+00,      /* K = 74 */
(PID.TID 0000.0001)                 2.740000000000000E+00,      /* K = 75 */
(PID.TID 0000.0001)                 2.640000000000000E+00,      /* K = 76 */
(PID.TID 0000.0001)                 2.540000000000000E+00,      /* K = 77 */
(PID.TID 0000.0001)                 2.450000000000000E+00,      /* K = 78 */
(PID.TID 0000.0001)                 2.360000000000000E+00,      /* K = 79 */
(PID.TID 0000.0001)                 2.270000000000000E+00,      /* K = 80 */
(PID.TID 0000.0001)                 2.190000000000000E+00,      /* K = 81 */
(PID.TID 0000.0001)                 2.100000000000000E+00,      /* K = 82 */
(PID.TID 0000.0001)                 2.030000000000000E+00,      /* K = 83 */
(PID.TID 0000.0001)                 1.950000000000000E+00,      /* K = 84 */
(PID.TID 0000.0001)                 1.860000000000000E+00,      /* K = 85 */
(PID.TID 0000.0001)                 1.780000000000000E+00,      /* K = 86 */
(PID.TID 0000.0001)                 1.700000000000000E+00,      /* K = 87 */
(PID.TID 0000.0001)                 1.630000000000000E+00,      /* K = 88 */
(PID.TID 0000.0001)                 1.550000000000000E+00,      /* K = 89 */
(PID.TID 0000.0001)                 1.480000000000000E+00,      /* K = 90 */
(PID.TID 0000.0001)                 1.410000000000000E+00,      /* K = 91 */
(PID.TID 0000.0001)                 1.340000000000000E+00,      /* K = 92 */
(PID.TID 0000.0001)                 1.270000000000000E+00,      /* K = 93 */
(PID.TID 0000.0001)                 1.200000000000000E+00,      /* K = 94 */
(PID.TID 0000.0001)                 1.130000000000000E+00,      /* K = 95 */
(PID.TID 0000.0001)                 1.060000000000000E+00,      /* K = 96 */
(PID.TID 0000.0001)                 1.000000000000000E+00,      /* K = 97 */
(PID.TID 0000.0001)                 9.600000000000000E-01,      /* K = 98 */
(PID.TID 0000.0001)                 9.300000000000000E-01,      /* K = 99 */
(PID.TID 0000.0001)                 9.100000000000000E-01       /* K =100 */
(PID.TID 0000.0001)     ;
(PID.TID 0000.0001) sRef =   /* Reference salinity profile ( psu ) */
(PID.TID 0000.0001)     6 @  3.484000000000000E+01,             /* K =  1:  6 */
(PID.TID 0000.0001)     3 @  3.485000000000000E+01,             /* K =  7:  9 */
(PID.TID 0000.0001)                 3.486000000000000E+01,      /* K = 10 */
(PID.TID 0000.0001)                 3.487000000000000E+01,      /* K = 11 */
(PID.TID 0000.0001)                 3.488000000000000E+01,      /* K = 12 */
(PID.TID 0000.0001)                 3.490000000000000E+01,      /* K = 13 */
(PID.TID 0000.0001)                 3.491000000000000E+01,      /* K = 14 */
(PID.TID 0000.0001)                 3.493000000000000E+01,      /* K = 15 */
(PID.TID 0000.0001)                 3.495000000000000E+01,      /* K = 16 */
(PID.TID 0000.0001)                 3.496000000000000E+01,      /* K = 17 */
(PID.TID 0000.0001)                 3.498000000000000E+01,      /* K = 18 */
(PID.TID 0000.0001)                 3.499000000000000E+01,      /* K = 19 */
(PID.TID 0000.0001)                 3.500000000000000E+01,      /* K = 20 */
(PID.TID 0000.0001)                 3.501000000000000E+01,      /* K = 21 */
(PID.TID 0000.0001)                 3.502000000000000E+01,      /* K = 22 */
(PID.TID 0000.0001)                 3.503000000000000E+01,      /* K = 23 */
(PID.TID 0000.0001)                 3.504000000000000E+01,      /* K = 24 */
(PID.TID 0000.0001)                 3.505000000000000E+01,      /* K = 25 */
(PID.TID 0000.0001)                 3.506000000000000E+01,      /* K = 26 */
(PID.TID 0000.0001)     7 @  3.507000000000000E+01,             /* K = 27: 33 */
(PID.TID 0000.0001)                 3.506000000000000E+01,      /* K = 34 */
(PID.TID 0000.0001)                 3.505000000000000E+01,      /* K = 35 */
(PID.TID 0000.0001)                 3.504000000000000E+01,      /* K = 36 */
(PID.TID 0000.0001)                 3.503000000000000E+01,      /* K = 37 */
(PID.TID 0000.0001)                 3.502000000000000E+01,      /* K = 38 */
(PID.TID 0000.0001)                 3.501000000000000E+01,      /* K = 39 */
(PID.TID 0000.0001)                 3.499000000000000E+01,      /* K = 40 */
(PID.TID 0000.0001)                 3.497000000000000E+01,      /* K = 41 */
(PID.TID 0000.0001)                 3.495000000000000E+01,      /* K = 42 */
(PID.TID 0000.0001)                 3.492000000000000E+01,      /* K = 43 */
(PID.TID 0000.0001)                 3.490000000000000E+01,      /* K = 44 */
(PID.TID 0000.0001)                 3.487000000000000E+01,      /* K = 45 */
(PID.TID 0000.0001)                 3.484000000000000E+01,      /* K = 46 */
(PID.TID 0000.0001)                 3.481000000000000E+01,      /* K = 47 */
(PID.TID 0000.0001)                 3.478000000000000E+01,      /* K = 48 */
(PID.TID 0000.0001)                 3.475000000000000E+01,      /* K = 49 */
(PID.TID 0000.0001)                 3.472000000000000E+01,      /* K = 50 */
(PID.TID 0000.0001)                 3.469000000000000E+01,      /* K = 51 */
(PID.TID 0000.0001)                 3.467000000000000E+01,      /* K = 52 */
(PID.TID 0000.0001)                 3.465000000000000E+01,      /* K = 53 */
(PID.TID 0000.0001)                 3.462000000000000E+01,      /* K = 54 */
(PID.TID 0000.0001)                 3.461000000000000E+01,      /* K = 55 */
(PID.TID 0000.0001)                 3.460000000000000E+01,      /* K = 56 */
(PID.TID 0000.0001)     2 @  3.459000000000000E+01,             /* K = 57: 58 */
(PID.TID 0000.0001)                 3.458000000000000E+01,      /* K = 59 */
(PID.TID 0000.0001)     2 @  3.459000000000000E+01,             /* K = 60: 61 */
(PID.TID 0000.0001)     2 @  3.460000000000000E+01,             /* K = 62: 63 */
(PID.TID 0000.0001)                 3.461000000000000E+01,      /* K = 64 */
(PID.TID 0000.0001)                 3.462000000000000E+01,      /* K = 65 */
(PID.TID 0000.0001)                 3.463000000000000E+01,      /* K = 66 */
(PID.TID 0000.0001)                 3.464000000000000E+01,      /* K = 67 */
(PID.TID 0000.0001)                 3.465000000000000E+01,      /* K = 68 */
(PID.TID 0000.0001)                 3.466000000000000E+01,      /* K = 69 */
(PID.TID 0000.0001)     2 @  3.467000000000000E+01,             /* K = 70: 71 */
(PID.TID 0000.0001)                 3.468000000000000E+01,      /* K = 72 */
(PID.TID 0000.0001)                 3.469000000000000E+01,      /* K = 73 */
(PID.TID 0000.0001)                 3.470000000000000E+01,      /* K = 74 */
(PID.TID 0000.0001)     2 @  3.471000000000000E+01,             /* K = 75: 76 */
(PID.TID 0000.0001)     2 @  3.472000000000000E+01,             /* K = 77: 78 */
(PID.TID 0000.0001)     3 @  3.473000000000000E+01,             /* K = 79: 81 */
(PID.TID 0000.0001)     4 @  3.474000000000000E+01,             /* K = 82: 85 */
(PID.TID 0000.0001)                 3.475000000000000E+01,      /* K = 86 */
(PID.TID 0000.0001)     8 @  3.474000000000000E+01,             /* K = 87: 94 */
(PID.TID 0000.0001)     6 @  3.473000000000000E+01              /* K = 95:100 */
(PID.TID 0000.0001)     ;
(PID.TID 0000.0001) useStrainTensionVisc= /* Use StrainTension Form of Viscous Operator */
(PID.TID 0000.0001)                   F
(PID.TID 0000.0001)     ;
(PID.TID 0000.0001) useVariableVisc = /* Use variable horizontal viscosity */
(PID.TID 0000.0001)                   T
(PID.TID 0000.0001)     ;
(PID.TID 0000.0001) useHarmonicVisc = /* Use harmonic horizontal viscosity */
(PID.TID 0000.0001)                   F
(PID.TID 0000.0001)     ;
(PID.TID 0000.0001) useBiharmonicVisc= /* Use biharmonic horiz.  viscosity */
(PID.TID 0000.0001)                   T
(PID.TID 0000.0001)     ;
(PID.TID 0000.0001) useSmag3D = /* Use isotropic 3-D Smagorinsky viscosity */
(PID.TID 0000.0001)                   F
(PID.TID 0000.0001)     ;
(PID.TID 0000.0001) viscAh  =   /* Lateral harmonic viscosity ( m^2/s ) */
(PID.TID 0000.0001)                 0.000000000000000E+00
(PID.TID 0000.0001)     ;
(PID.TID 0000.0001) viscAhMax = /* Maximum lateral harmonic viscosity ( m^2/s ) */
(PID.TID 0000.0001)                 1.000000000000000E+21
(PID.TID 0000.0001)     ;
(PID.TID 0000.0001) viscAhGrid = /* Grid dependent lateral harmonic viscosity ( non-dim. ) */
(PID.TID 0000.0001)                 0.000000000000000E+00
(PID.TID 0000.0001)     ;
(PID.TID 0000.0001) useFullLeith = /* Use Full Form of Leith Viscosity on/off flag*/
(PID.TID 0000.0001)                   F
(PID.TID 0000.0001)     ;
(PID.TID 0000.0001) useAreaViscLength = /* Use area for visc length instead of geom. mean*/
(PID.TID 0000.0001)                   T
(PID.TID 0000.0001)     ;
(PID.TID 0000.0001) viscC2leith = /* Leith harmonic visc. factor (on grad(vort),non-dim.) */
(PID.TID 0000.0001)                 0.000000000000000E+00
(PID.TID 0000.0001)     ;
(PID.TID 0000.0001) viscC2leithD = /* Leith harmonic viscosity factor (on grad(div),non-dim.)*/
(PID.TID 0000.0001)                 0.000000000000000E+00
(PID.TID 0000.0001)     ;
(PID.TID 0000.0001) viscC2smag = /* Smagorinsky harmonic viscosity factor (non-dim.) */
(PID.TID 0000.0001)                 0.000000000000000E+00
(PID.TID 0000.0001)     ;
(PID.TID 0000.0001) viscA4  =   /* Lateral biharmonic viscosity ( m^4/s ) */
(PID.TID 0000.0001)                 0.000000000000000E+00
(PID.TID 0000.0001)     ;
(PID.TID 0000.0001) viscA4Max = /* Maximum biharmonic viscosity ( m^2/s ) */
(PID.TID 0000.0001)                 1.000000000000000E+21
(PID.TID 0000.0001)     ;
(PID.TID 0000.0001) viscA4Grid = /* Grid dependent biharmonic viscosity ( non-dim. ) */
(PID.TID 0000.0001)                 0.000000000000000E+00
(PID.TID 0000.0001)     ;
(PID.TID 0000.0001) viscC4leith = /* Leith biharm viscosity factor (on grad(vort), non-dim.)*/
(PID.TID 0000.0001)                 2.000000000000000E+00
(PID.TID 0000.0001)     ;
(PID.TID 0000.0001) viscC4leithD = /* Leith biharm viscosity factor (on grad(div), non-dim.) */
(PID.TID 0000.0001)                 2.000000000000000E+00
(PID.TID 0000.0001)     ;
(PID.TID 0000.0001) viscC4Smag = /* Smagorinsky biharm viscosity factor (non-dim) */
(PID.TID 0000.0001)                 0.000000000000000E+00
(PID.TID 0000.0001)     ;
(PID.TID 0000.0001) no_slip_sides =  /* Viscous BCs: No-slip sides */
(PID.TID 0000.0001)                   T
(PID.TID 0000.0001)     ;
(PID.TID 0000.0001) sideDragFactor = /* side-drag scaling factor (non-dim) */
(PID.TID 0000.0001)                 2.000000000000000E+00
(PID.TID 0000.0001)     ;
(PID.TID 0000.0001) viscArNr = /* vertical profile of vertical viscosity ( m^2/s )*/
(PID.TID 0000.0001)   100 @  5.000000000000000E-04              /* K =  1:100 */
(PID.TID 0000.0001)     ;
(PID.TID 0000.0001) no_slip_bottom =  /* Viscous BCs: No-slip bottom */
(PID.TID 0000.0001)                   T
(PID.TID 0000.0001)     ;
(PID.TID 0000.0001) bottomVisc_pCell = /* Partial-cell in bottom Visc. BC */
(PID.TID 0000.0001)                   F
(PID.TID 0000.0001)     ;
(PID.TID 0000.0001) bottomDragLinear = /* linear bottom-drag coefficient ( m/s ) */
(PID.TID 0000.0001)                 0.000000000000000E+00
(PID.TID 0000.0001)     ;
(PID.TID 0000.0001) bottomDragQuadratic = /* quadratic bottom-drag coefficient (-) */
(PID.TID 0000.0001)                 2.000000000000000E-03
(PID.TID 0000.0001)     ;
(PID.TID 0000.0001) selectBotDragQuadr = /* select quadratic bottom drag options */
(PID.TID 0000.0001)                       0
(PID.TID 0000.0001)     ;
(PID.TID 0000.0001) diffKhT =   /* Laplacian diffusion of heat laterally ( m^2/s ) */
(PID.TID 0000.0001)                 0.000000000000000E+00
(PID.TID 0000.0001)     ;
(PID.TID 0000.0001) diffK4T =   /* Biharmonic diffusion of heat laterally ( m^4/s ) */
(PID.TID 0000.0001)                 0.000000000000000E+00
(PID.TID 0000.0001)     ;
(PID.TID 0000.0001) diffKhS =   /* Laplacian diffusion of salt laterally ( m^2/s ) */
(PID.TID 0000.0001)                 0.000000000000000E+00
(PID.TID 0000.0001)     ;
(PID.TID 0000.0001) diffK4S =   /* Biharmonic diffusion of salt laterally ( m^4/s ) */
(PID.TID 0000.0001)                 0.000000000000000E+00
(PID.TID 0000.0001)     ;
(PID.TID 0000.0001) diffKrNrT = /* vertical profile of vertical diffusion of Temp ( m^2/s )*/
(PID.TID 0000.0001)   100 @  1.000000000000000E-05              /* K =  1:100 */
(PID.TID 0000.0001)     ;
(PID.TID 0000.0001) diffKrNrS = /* vertical profile of vertical diffusion of Salt ( m^2/s )*/
(PID.TID 0000.0001)   100 @  1.000000000000000E-05              /* K =  1:100 */
(PID.TID 0000.0001)     ;
(PID.TID 0000.0001) diffKrBL79surf = /* Surface diffusion for Bryan and Lewis 79 ( m^2/s ) */
(PID.TID 0000.0001)                 0.000000000000000E+00
(PID.TID 0000.0001)     ;
(PID.TID 0000.0001) diffKrBL79deep = /* Deep diffusion for Bryan and Lewis 1979 ( m^2/s ) */
(PID.TID 0000.0001)                 0.000000000000000E+00
(PID.TID 0000.0001)     ;
(PID.TID 0000.0001) diffKrBL79scl = /* Depth scale for Bryan and Lewis 1979 ( m ) */
(PID.TID 0000.0001)                 2.000000000000000E+02
(PID.TID 0000.0001)     ;
(PID.TID 0000.0001) diffKrBL79Ho = /* Turning depth for Bryan and Lewis 1979 ( m ) */
(PID.TID 0000.0001)                -2.000000000000000E+03
(PID.TID 0000.0001)     ;
(PID.TID 0000.0001) ivdc_kappa = /* Implicit Vertical Diffusivity for Convection ( m^2/s) */
(PID.TID 0000.0001)                 0.000000000000000E+00
(PID.TID 0000.0001)     ;
(PID.TID 0000.0001) hMixCriteria=  /* Criteria for mixed-layer diagnostic */
(PID.TID 0000.0001)                -8.000000000000000E-01
(PID.TID 0000.0001)     ;
(PID.TID 0000.0001) dRhoSmall =  /* Parameter for mixed-layer diagnostic */
(PID.TID 0000.0001)                 1.000000000000000E-06
(PID.TID 0000.0001)     ;
(PID.TID 0000.0001) hMixSmooth=  /* Smoothing parameter for mixed-layer diagnostic */
(PID.TID 0000.0001)                 0.000000000000000E+00
(PID.TID 0000.0001)     ;
(PID.TID 0000.0001) eosType =  /* Type of Equation of State */
(PID.TID 0000.0001)               'JMD95Z'
(PID.TID 0000.0001)     ;
(PID.TID 0000.0001) selectP_inEOS_Zc = /* select pressure to use in EOS (0,1,2,3) */
(PID.TID 0000.0001)                       0
(PID.TID 0000.0001)     0= -g*rhoConst*z ; 1= pRef (from tRef,sRef); 2= Hyd P ; 3= Hyd+NH P
(PID.TID 0000.0001)     ;
(PID.TID 0000.0001) HeatCapacity_Cp =  /* Specific heat capacity ( J/kg/K ) */
(PID.TID 0000.0001)                 3.994000000000000E+03
(PID.TID 0000.0001)     ;
(PID.TID 0000.0001) celsius2K = /* 0 degree Celsius converted to Kelvin ( K ) */
(PID.TID 0000.0001)                 2.731500000000000E+02
(PID.TID 0000.0001)     ;
(PID.TID 0000.0001) rhoConst  = /* Reference density (Boussinesq)  ( kg/m^3 ) */
(PID.TID 0000.0001)                 1.029000000000000E+03
(PID.TID 0000.0001)     ;
(PID.TID 0000.0001) rhoFacC = /* normalized Reference density @ cell-Center (-) */
(PID.TID 0000.0001)   100 @  1.000000000000000E+00              /* K =  1:100 */
(PID.TID 0000.0001)     ;
(PID.TID 0000.0001) rhoFacF = /* normalized Reference density @ W-Interface (-) */
(PID.TID 0000.0001)   101 @  1.000000000000000E+00              /* K =  1:101 */
(PID.TID 0000.0001)     ;
(PID.TID 0000.0001) rhoConstFresh = /* Fresh-water reference density ( kg/m^3 ) */
(PID.TID 0000.0001)                 1.000000000000000E+03
(PID.TID 0000.0001)     ;
(PID.TID 0000.0001) gravity =   /* Gravitational acceleration ( m/s^2 ) */
(PID.TID 0000.0001)                 9.810000000000000E+00
(PID.TID 0000.0001)     ;
(PID.TID 0000.0001) gBaro =   /* Barotropic gravity ( m/s^2 ) */
(PID.TID 0000.0001)                 9.810000000000000E+00
(PID.TID 0000.0001)     ;
(PID.TID 0000.0001) gravFacC = /* gravity factor (vs surf.) @ cell-Center (-) */
(PID.TID 0000.0001)   100 @  1.000000000000000E+00              /* K =  1:100 */
(PID.TID 0000.0001)     ;
(PID.TID 0000.0001) gravFacF = /* gravity factor (vs surf.) @ W-Interface (-) */
(PID.TID 0000.0001)   101 @  1.000000000000000E+00              /* K =  1:101 */
(PID.TID 0000.0001)     ;
(PID.TID 0000.0001) rotationPeriod =   /* Rotation Period ( s ) */
(PID.TID 0000.0001)                 8.616400000000000E+04
(PID.TID 0000.0001)     ;
(PID.TID 0000.0001) omega =   /* Angular velocity ( rad/s ) */
(PID.TID 0000.0001)                 7.292123516990375E-05
(PID.TID 0000.0001)     ;
(PID.TID 0000.0001) f0 =   /* Reference coriolis parameter ( 1/s ) */
(PID.TID 0000.0001)                 1.000000000000000E-04
(PID.TID 0000.0001)     ;
(PID.TID 0000.0001) beta =   /* Beta ( 1/(m.s) ) */
(PID.TID 0000.0001)                 9.999999999999999E-12
(PID.TID 0000.0001)     ;
(PID.TID 0000.0001) fPrime =   /* Second coriolis parameter ( 1/s ) */
(PID.TID 0000.0001)                 0.000000000000000E+00
(PID.TID 0000.0001)     ;
(PID.TID 0000.0001) rigidLid =   /* Rigid lid on/off flag */
(PID.TID 0000.0001)                   F
(PID.TID 0000.0001)     ;
(PID.TID 0000.0001) implicitFreeSurface =   /* Implicit free surface on/off flag */
(PID.TID 0000.0001)                   T
(PID.TID 0000.0001)     ;
(PID.TID 0000.0001) freeSurfFac =   /* Implicit free surface factor */
(PID.TID 0000.0001)                 1.000000000000000E+00
(PID.TID 0000.0001)     ;
(PID.TID 0000.0001) implicSurfPress =  /* Surface Pressure implicit factor (0-1)*/
(PID.TID 0000.0001)                 1.000000000000000E+00
(PID.TID 0000.0001)     ;
(PID.TID 0000.0001) implicDiv2DFlow =  /* Barot. Flow Div. implicit factor (0-1)*/
(PID.TID 0000.0001)                 1.000000000000000E+00
(PID.TID 0000.0001)     ;
(PID.TID 0000.0001) uniformLin_PhiSurf = /* use uniform Bo_surf on/off flag*/
(PID.TID 0000.0001)                   T
(PID.TID 0000.0001)     ;
(PID.TID 0000.0001) uniformFreeSurfLev = /* free-surface level-index is uniform */
(PID.TID 0000.0001)                   T
(PID.TID 0000.0001)     ;
(PID.TID 0000.0001) hFacMin =   /* minimum partial cell factor (hFac) */
(PID.TID 0000.0001)                 2.000000000000000E-01
(PID.TID 0000.0001)     ;
(PID.TID 0000.0001) hFacMinDr = /* minimum partial cell thickness ( m) */
(PID.TID 0000.0001)                 5.000000000000000E+00
(PID.TID 0000.0001)     ;
(PID.TID 0000.0001) exactConserv =  /* Exact Volume Conservation on/off flag*/
(PID.TID 0000.0001)                   T
(PID.TID 0000.0001)     ;
(PID.TID 0000.0001) linFSConserveTr = /* Tracer correction for Lin Free Surface on/off flag*/
(PID.TID 0000.0001)                   F
(PID.TID 0000.0001)     ;
(PID.TID 0000.0001) nonlinFreeSurf = /* Non-linear Free Surf. options (-1,0,1,2,3)*/
(PID.TID 0000.0001)                       0
(PID.TID 0000.0001)      -1,0= Off ; 1,2,3= On, 2=+rescale gU,gV, 3=+update cg2d solv.
(PID.TID 0000.0001)     ;
(PID.TID 0000.0001) hFacInf =   /* lower threshold for hFac (nonlinFreeSurf only)*/
(PID.TID 0000.0001)                 2.000000000000000E-01
(PID.TID 0000.0001)     ;
(PID.TID 0000.0001) hFacSup =   /* upper threshold for hFac (nonlinFreeSurf only)*/
(PID.TID 0000.0001)                 2.000000000000000E+00
(PID.TID 0000.0001)     ;
(PID.TID 0000.0001) select_rStar = /* r* Vertical coord. options (=0 r coord.; >0 uses r*)*/
(PID.TID 0000.0001)                       0
(PID.TID 0000.0001)     ;
(PID.TID 0000.0001) useRealFreshWaterFlux = /* Real Fresh Water Flux on/off flag*/
(PID.TID 0000.0001)                   F
(PID.TID 0000.0001)     ;
(PID.TID 0000.0001) temp_EvPrRn = /* Temp. of Evap/Prec/R (UNSET=use local T)(oC)*/
(PID.TID 0000.0001)                 0.000000000000000E+00
(PID.TID 0000.0001)     ;
(PID.TID 0000.0001) salt_EvPrRn = /* Salin. of Evap/Prec/R (UNSET=use local S)(psu)*/
(PID.TID 0000.0001)                 0.000000000000000E+00
(PID.TID 0000.0001)     ;
(PID.TID 0000.0001) selectAddFluid = /* option for mass source/sink of fluid (=0: off) */
(PID.TID 0000.0001)                       0
(PID.TID 0000.0001)     ;
(PID.TID 0000.0001) temp_addMass = /* Temp. of addMass array (UNSET=use local T)(oC)*/
(PID.TID 0000.0001)                 0.000000000000000E+00
(PID.TID 0000.0001)     ;
(PID.TID 0000.0001) salt_addMass = /* Salin. of addMass array (UNSET=use local S)(psu)*/
(PID.TID 0000.0001)                 0.000000000000000E+00
(PID.TID 0000.0001)     ;
(PID.TID 0000.0001) convertFW2Salt = /* convert F.W. Flux to Salt Flux (-1=use local S)(psu)*/
(PID.TID 0000.0001)                -1.000000000000000E+00
(PID.TID 0000.0001)     ;
(PID.TID 0000.0001) use3Dsolver = /* use 3-D pressure solver on/off flag */
(PID.TID 0000.0001)                   F
(PID.TID 0000.0001)     ;
(PID.TID 0000.0001) nonHydrostatic =  /* Non-Hydrostatic on/off flag */
(PID.TID 0000.0001)                   F
(PID.TID 0000.0001)     ;
(PID.TID 0000.0001) nh_Am2 = /* Non-Hydrostatic terms scaling factor */
(PID.TID 0000.0001)                 1.000000000000000E+00
(PID.TID 0000.0001)     ;
(PID.TID 0000.0001) implicitNHPress = /* Non-Hyd Pressure implicit factor (0-1)*/
(PID.TID 0000.0001)                 1.000000000000000E+00
(PID.TID 0000.0001)     ;
(PID.TID 0000.0001) selectNHfreeSurf = /* Non-Hyd (free-)Surface option */
(PID.TID 0000.0001)                       0
(PID.TID 0000.0001)     ;
(PID.TID 0000.0001) quasiHydrostatic = /* Quasi-Hydrostatic on/off flag */
(PID.TID 0000.0001)                   F
(PID.TID 0000.0001)     ;
(PID.TID 0000.0001) calc_wVelocity = /* vertical velocity calculation on/off flag */
(PID.TID 0000.0001)                   T
(PID.TID 0000.0001)     ;
(PID.TID 0000.0001) momStepping =  /* Momentum equation on/off flag */
(PID.TID 0000.0001)                   T
(PID.TID 0000.0001)     ;
(PID.TID 0000.0001) vectorInvariantMomentum= /* Vector-Invariant Momentum on/off */
(PID.TID 0000.0001)                   T
(PID.TID 0000.0001)     ;
(PID.TID 0000.0001) momAdvection =  /* Momentum advection on/off flag */
(PID.TID 0000.0001)                   T
(PID.TID 0000.0001)     ;
(PID.TID 0000.0001) momViscosity =  /* Momentum viscosity on/off flag */
(PID.TID 0000.0001)                   T
(PID.TID 0000.0001)     ;
(PID.TID 0000.0001) momImplVertAdv= /* Momentum implicit vert. advection on/off*/
(PID.TID 0000.0001)                   F
(PID.TID 0000.0001)     ;
(PID.TID 0000.0001) implicitViscosity = /* Implicit viscosity on/off flag */
(PID.TID 0000.0001)                   T
(PID.TID 0000.0001)     ;
(PID.TID 0000.0001) selectImplicitDrag= /* Implicit bot Drag options (0,1,2)*/
(PID.TID 0000.0001)                       0
(PID.TID 0000.0001)     0= Expl. ; 1= Impl. on provis. Vel ; 2= Fully Impl (with surf.P)
(PID.TID 0000.0001)     ;
(PID.TID 0000.0001) metricTerms =  /* metric-Terms on/off flag */
(PID.TID 0000.0001)                   T
(PID.TID 0000.0001)     ;
(PID.TID 0000.0001) useNHMTerms = /* Non-Hydrostatic Metric-Terms on/off */
(PID.TID 0000.0001)                   F
(PID.TID 0000.0001)     ;
(PID.TID 0000.0001) selectCoriMap = /* Coriolis Map options (0,1,2,3)*/
(PID.TID 0000.0001)                       2
(PID.TID 0000.0001)     0= f-Plane ; 1= Beta-Plane ; 2= Spherical ; 3= read from file
(PID.TID 0000.0001)     ;
(PID.TID 0000.0001) use3dCoriolis = /* 3-D Coriolis on/off flag */
(PID.TID 0000.0001)                   F
(PID.TID 0000.0001)     ;
(PID.TID 0000.0001) useCoriolis =  /* Coriolis on/off flag */
(PID.TID 0000.0001)                   T
(PID.TID 0000.0001)     ;
(PID.TID 0000.0001) useCDscheme =  /* CD scheme on/off flag */
(PID.TID 0000.0001)                   F
(PID.TID 0000.0001)     ;
(PID.TID 0000.0001) useEnergyConservingCoriolis= /* Flx-Form Coriolis scheme flag */
(PID.TID 0000.0001)                   F
(PID.TID 0000.0001)     ;
(PID.TID 0000.0001) useJamartWetPoints= /* Coriolis WetPoints method flag */
(PID.TID 0000.0001)                   F
(PID.TID 0000.0001)     ;
(PID.TID 0000.0001) useJamartMomAdv= /* V.I Non-linear terms Jamart flag */
(PID.TID 0000.0001)                   F
(PID.TID 0000.0001)     ;
(PID.TID 0000.0001) useAbsVorticity= /* V.I Works with f+zeta in Coriolis */
(PID.TID 0000.0001)                   F
(PID.TID 0000.0001)     ;
(PID.TID 0000.0001) selectVortScheme= /* V.I Scheme selector for Vorticity-Term */
(PID.TID 0000.0001)                       0
(PID.TID 0000.0001)    = 0 : enstrophy (Shallow-Water Eq.) conserving scheme by Sadourny, JAS 75
(PID.TID 0000.0001)    = 1 : same as 0 with modified hFac
(PID.TID 0000.0001)    = 2 : energy conserving scheme (used by Sadourny in JAS 75 paper)
(PID.TID 0000.0001)    = 3 : energy (general) and enstrophy (2D, nonDiv.) conserving scheme
(PID.TID 0000.0001)          from Sadourny (Burridge & Haseler, ECMWF Rep.4, 1977)
(PID.TID 0000.0001)     ;
(PID.TID 0000.0001) upwindVorticity= /* V.I Upwind bias vorticity flag */
(PID.TID 0000.0001)                   F
(PID.TID 0000.0001)     ;
(PID.TID 0000.0001) highOrderVorticity= /* V.I High order vort. advect. flag */
(PID.TID 0000.0001)                   T
(PID.TID 0000.0001)     ;
(PID.TID 0000.0001) upwindShear= /* V.I Upwind vertical Shear advection flag */
(PID.TID 0000.0001)                   F
(PID.TID 0000.0001)     ;
(PID.TID 0000.0001) selectKEscheme= /* V.I Kinetic Energy scheme selector */
(PID.TID 0000.0001)                       0
(PID.TID 0000.0001)     ;
(PID.TID 0000.0001) momForcing =  /* Momentum forcing on/off flag */
(PID.TID 0000.0001)                   T
(PID.TID 0000.0001)     ;
(PID.TID 0000.0001) momTidalForcing = /* Momentum Tidal forcing on/off flag */
(PID.TID 0000.0001)                   T
(PID.TID 0000.0001)     ;
(PID.TID 0000.0001) momPressureForcing =  /* Momentum pressure term on/off flag */
(PID.TID 0000.0001)                   T
(PID.TID 0000.0001)     ;
(PID.TID 0000.0001) implicitIntGravWave= /* Implicit Internal Gravity Wave flag */
(PID.TID 0000.0001)                   F
(PID.TID 0000.0001)     ;
(PID.TID 0000.0001) staggerTimeStep =    /* Stagger time stepping on/off flag */
(PID.TID 0000.0001)                   T
(PID.TID 0000.0001)     ;
(PID.TID 0000.0001) doResetHFactors = /* reset thickness factors @ each time-step */
(PID.TID 0000.0001)                   F
(PID.TID 0000.0001)     ;
(PID.TID 0000.0001) multiDimAdvection =  /* enable/disable Multi-Dim Advection */
(PID.TID 0000.0001)                   T
(PID.TID 0000.0001)     ;
(PID.TID 0000.0001) useMultiDimAdvec =   /* Multi-Dim Advection is/is-not used */
(PID.TID 0000.0001)                   T
(PID.TID 0000.0001)     ;
(PID.TID 0000.0001) implicitDiffusion = /* Implicit Diffusion on/off flag */
(PID.TID 0000.0001)                   T
(PID.TID 0000.0001)     ;
(PID.TID 0000.0001) tempStepping =  /* Temperature equation on/off flag */
(PID.TID 0000.0001)                   T
(PID.TID 0000.0001)     ;
(PID.TID 0000.0001) tempAdvection = /* Temperature advection on/off flag */
(PID.TID 0000.0001)                   T
(PID.TID 0000.0001)     ;
(PID.TID 0000.0001) tempImplVertAdv = /* Temp. implicit vert. advection on/off */
(PID.TID 0000.0001)                   F
(PID.TID 0000.0001)     ;
(PID.TID 0000.0001) tempForcing  =  /* Temperature forcing on/off flag */
(PID.TID 0000.0001)                   T
(PID.TID 0000.0001)     ;
(PID.TID 0000.0001) doThetaClimRelax = /* apply SST relaxation on/off flag */
(PID.TID 0000.0001)                   F
(PID.TID 0000.0001)     ;
(PID.TID 0000.0001) tempIsActiveTr = /* Temp. is a dynamically Active Tracer */
(PID.TID 0000.0001)                   T
(PID.TID 0000.0001)     ;
(PID.TID 0000.0001) saltStepping =  /* Salinity equation on/off flag */
(PID.TID 0000.0001)                   T
(PID.TID 0000.0001)     ;
(PID.TID 0000.0001) saltAdvection = /* Salinity advection on/off flag */
(PID.TID 0000.0001)                   T
(PID.TID 0000.0001)     ;
(PID.TID 0000.0001) saltImplVertAdv = /* Sali. implicit vert. advection on/off */
(PID.TID 0000.0001)                   F
(PID.TID 0000.0001)     ;
(PID.TID 0000.0001) saltForcing  =  /* Salinity forcing on/off flag */
(PID.TID 0000.0001)                   T
(PID.TID 0000.0001)     ;
(PID.TID 0000.0001) doSaltClimRelax = /* apply SSS relaxation on/off flag */
(PID.TID 0000.0001)                   F
(PID.TID 0000.0001)     ;
(PID.TID 0000.0001) saltIsActiveTr = /* Salt  is a dynamically Active Tracer */
(PID.TID 0000.0001)                   T
(PID.TID 0000.0001)     ;
(PID.TID 0000.0001)  readBinaryPrec = /* Precision used for reading binary files */
(PID.TID 0000.0001)                      32
(PID.TID 0000.0001)     ;
(PID.TID 0000.0001) writeBinaryPrec = /* Precision used for writing binary files */
(PID.TID 0000.0001)                      32
(PID.TID 0000.0001)     ;
(PID.TID 0000.0001)  rwSuffixType =   /* select format of mds file suffix */
(PID.TID 0000.0001)                       0
(PID.TID 0000.0001)    = 0 : myIter (I10.10) ;   = 1 : 100*myTime (100th sec) ;
(PID.TID 0000.0001)    = 2 : myTime (seconds);   = 3 : myTime/360 (10th of hr);
(PID.TID 0000.0001)    = 4 : myTime/3600 (hours)
(PID.TID 0000.0001)     ;
(PID.TID 0000.0001)  globalFiles = /* write "global" (=not per tile) files */
(PID.TID 0000.0001)                   T
(PID.TID 0000.0001)     ;
(PID.TID 0000.0001)  useSingleCpuIO = /* only master MPI process does I/O */
(PID.TID 0000.0001)                   T
(PID.TID 0000.0001)     ;
(PID.TID 0000.0001)  useSingleCpuInput = /* only master process reads input */
(PID.TID 0000.0001)                   T
(PID.TID 0000.0001)     ;
(PID.TID 0000.0001) /* debLev[*]  : level of debug & auxiliary message printing */
(PID.TID 0000.0001) debLevZero =  0 ; /* level of disabled aux. msg printing */
(PID.TID 0000.0001)    debLevA =  1 ; /* level of minimum  aux. msg printing */
(PID.TID 0000.0001)    debLevB =  2 ; /* level of low aux. print (report read-file opening)*/
(PID.TID 0000.0001)    debLevC =  3 ; /* level of moderate debug prt (most pkgs debug msg) */
(PID.TID 0000.0001)    debLevD =  4 ; /* level of enhanced debug prt (add DEBUG_STATS prt) */
(PID.TID 0000.0001)    debLevE =  5 ; /* level of extensive debug printing */
(PID.TID 0000.0001) debugLevel =  /* select debug printing level */
(PID.TID 0000.0001)                       2
(PID.TID 0000.0001)     ;
(PID.TID 0000.0001)  plotLevel =  /* select PLOT_FIELD printing level */
(PID.TID 0000.0001)                       2
(PID.TID 0000.0001)     ;
(PID.TID 0000.0001) //
(PID.TID 0000.0001) // Elliptic solver(s) paramters ( PARM02 in namelist )
(PID.TID 0000.0001) //
(PID.TID 0000.0001) cg2dMaxIters =   /* Upper limit on 2d con. grad iterations  */
(PID.TID 0000.0001)                    1000
(PID.TID 0000.0001)     ;
(PID.TID 0000.0001) cg2dChkResFreq =   /* 2d con. grad convergence test frequency */
(PID.TID 0000.0001)                       1
(PID.TID 0000.0001)     ;
(PID.TID 0000.0001) cg2dUseMinResSol= /* use cg2d last-iter(=0) / min-resid.(=1) solution */
(PID.TID 0000.0001)                       0
(PID.TID 0000.0001)     ;
(PID.TID 0000.0001) cg2dTargetResidual =   /* 2d con. grad target residual  */
(PID.TID 0000.0001)                 1.000000000000000E-07
(PID.TID 0000.0001)     ;
(PID.TID 0000.0001) cg2dTargetResWunit =   /* CG2d target residual [W units] */
(PID.TID 0000.0001)                 1.000000000000000E-18
(PID.TID 0000.0001)     ;
(PID.TID 0000.0001) cg2dPreCondFreq =   /* Freq. for updating cg2d preconditioner */
(PID.TID 0000.0001)                       1
(PID.TID 0000.0001)     ;
(PID.TID 0000.0001) useSRCGSolver =  /* use single reduction CG solver(s) */
(PID.TID 0000.0001)                   F
(PID.TID 0000.0001)     ;
(PID.TID 0000.0001) printResidualFreq = /* Freq. for printing CG residual */
(PID.TID 0000.0001)                       0
(PID.TID 0000.0001)     ;
(PID.TID 0000.0001) //
(PID.TID 0000.0001) // Time stepping paramters ( PARM03 in namelist )
(PID.TID 0000.0001) //
(PID.TID 0000.0001) deltaTMom =   /* Momentum equation timestep ( s ) */
(PID.TID 0000.0001)                 2.400000000000000E+02
(PID.TID 0000.0001)     ;
(PID.TID 0000.0001) deltaTFreeSurf = /* FreeSurface equation timestep ( s ) */
(PID.TID 0000.0001)                 2.400000000000000E+02
(PID.TID 0000.0001)     ;
(PID.TID 0000.0001) dTtracerLev =  /* Tracer equation timestep ( s ) */
(PID.TID 0000.0001)   100 @  2.400000000000000E+02              /* K =  1:100 */
(PID.TID 0000.0001)     ;
(PID.TID 0000.0001) deltaTClock  =   /* Model clock timestep ( s ) */
(PID.TID 0000.0001)                 2.400000000000000E+02
(PID.TID 0000.0001)     ;
(PID.TID 0000.0001) cAdjFreq =   /* Convective adjustment interval ( s ) */
(PID.TID 0000.0001)                 0.000000000000000E+00
(PID.TID 0000.0001)     ;
(PID.TID 0000.0001) momForcingOutAB = /* =1: take Momentum Forcing out of Adams-Bash. stepping */
(PID.TID 0000.0001)                       1
(PID.TID 0000.0001)     ;
(PID.TID 0000.0001) tracForcingOutAB = /* =1: take T,S,pTr Forcing out of Adams-Bash. stepping */
(PID.TID 0000.0001)                       1
(PID.TID 0000.0001)     ;
(PID.TID 0000.0001) momDissip_In_AB = /* put Dissipation Tendency in Adams-Bash. stepping */
(PID.TID 0000.0001)                   F
(PID.TID 0000.0001)     ;
(PID.TID 0000.0001) doAB_onGtGs = /* apply AB on Tendencies (rather than on T,S)*/
(PID.TID 0000.0001)                   T
(PID.TID 0000.0001)     ;
(PID.TID 0000.0001) abEps =   /* Adams-Bashforth-2 stabilizing weight */
(PID.TID 0000.0001)                 1.000000000000000E-01
(PID.TID 0000.0001)     ;
(PID.TID 0000.0001) applyExchUV_early = /* Apply EXCH to U,V earlier in time-step */
(PID.TID 0000.0001)                   F
(PID.TID 0000.0001)     ;
(PID.TID 0000.0001) pickupStrictlyMatch= /* stop if pickup do not strictly match */
(PID.TID 0000.0001)                   F
(PID.TID 0000.0001)     ;
(PID.TID 0000.0001) nIter0   =   /* Run starting timestep number */
(PID.TID 0000.0001)                       0
(PID.TID 0000.0001)     ;
(PID.TID 0000.0001) nTimeSteps = /* Number of timesteps */
(PID.TID 0000.0001)                      15
(PID.TID 0000.0001)     ;
(PID.TID 0000.0001) nEndIter =   /* Run ending timestep number */
(PID.TID 0000.0001)                      15
(PID.TID 0000.0001)     ;
(PID.TID 0000.0001) baseTime =   /* Model base time ( s ) */
(PID.TID 0000.0001)                 0.000000000000000E+00
(PID.TID 0000.0001)     ;
(PID.TID 0000.0001) startTime =  /* Run start time ( s ) */
(PID.TID 0000.0001)                 0.000000000000000E+00
(PID.TID 0000.0001)     ;
(PID.TID 0000.0001) endTime  =   /* Integration ending time ( s ) */
(PID.TID 0000.0001)                 3.600000000000000E+03
(PID.TID 0000.0001)     ;
(PID.TID 0000.0001) pChkPtFreq = /* Permanent restart/pickup file interval ( s ) */
(PID.TID 0000.0001)                 8.640000000000000E+05
(PID.TID 0000.0001)     ;
(PID.TID 0000.0001) chkPtFreq  = /* Rolling restart/pickup file interval ( s ) */
(PID.TID 0000.0001)                 0.000000000000000E+00
(PID.TID 0000.0001)     ;
(PID.TID 0000.0001) pickup_write_mdsio =   /* Model IO flag. */
(PID.TID 0000.0001)                   T
(PID.TID 0000.0001)     ;
(PID.TID 0000.0001) pickup_read_mdsio =   /* Model IO flag. */
(PID.TID 0000.0001)                   T
(PID.TID 0000.0001)     ;
(PID.TID 0000.0001) writePickupAtEnd =   /* Model IO flag. */
(PID.TID 0000.0001)                   T
(PID.TID 0000.0001)     ;
(PID.TID 0000.0001) dumpFreq =   /* Model state write out interval ( s ). */
(PID.TID 0000.0001)                 0.000000000000000E+00
(PID.TID 0000.0001)     ;
(PID.TID 0000.0001) dumpInitAndLast= /* write out Initial & Last iter. model state */
(PID.TID 0000.0001)                   F
(PID.TID 0000.0001)     ;
(PID.TID 0000.0001) snapshot_mdsio =   /* Model IO flag. */
(PID.TID 0000.0001)                   T
(PID.TID 0000.0001)     ;
(PID.TID 0000.0001) monitorFreq =   /* Monitor output interval ( s ). */
(PID.TID 0000.0001)                 2.400000000000000E+02
(PID.TID 0000.0001)     ;
(PID.TID 0000.0001) monitorSelect = /* select group of variables to monitor */
(PID.TID 0000.0001)                       3
(PID.TID 0000.0001)     ;
(PID.TID 0000.0001) monitor_stdio =   /* Model IO flag. */
(PID.TID 0000.0001)                   T
(PID.TID 0000.0001)     ;
(PID.TID 0000.0001) externForcingPeriod =   /* forcing period (s) */
(PID.TID 0000.0001)                 0.000000000000000E+00
(PID.TID 0000.0001)     ;
(PID.TID 0000.0001) externForcingCycle =   /* period of the cyle (s). */
(PID.TID 0000.0001)                 0.000000000000000E+00
(PID.TID 0000.0001)     ;
(PID.TID 0000.0001) tauThetaClimRelax =   /* relaxation time scale (s) */
(PID.TID 0000.0001)                 0.000000000000000E+00
(PID.TID 0000.0001)     ;
(PID.TID 0000.0001) tauSaltClimRelax =   /* relaxation time scale (s) */
(PID.TID 0000.0001)                 0.000000000000000E+00
(PID.TID 0000.0001)     ;
(PID.TID 0000.0001) latBandClimRelax =   /* max. Lat. where relaxation */
(PID.TID 0000.0001)                 1.800000000000000E+02
(PID.TID 0000.0001)     ;
(PID.TID 0000.0001) //
(PID.TID 0000.0001) // Gridding paramters ( PARM04 in namelist )
(PID.TID 0000.0001) //
(PID.TID 0000.0001) usingCartesianGrid = /* Cartesian coordinates flag ( True/False ) */
(PID.TID 0000.0001)                   F
(PID.TID 0000.0001)     ;
(PID.TID 0000.0001) usingCylindricalGrid = /* Cylindrical coordinates flag ( True/False ) */
(PID.TID 0000.0001)                   F
(PID.TID 0000.0001)     ;
(PID.TID 0000.0001) usingSphericalPolarGrid = /* Spherical coordinates flag ( True/False ) */
(PID.TID 0000.0001)                   T
(PID.TID 0000.0001)     ;
(PID.TID 0000.0001) usingCurvilinearGrid = /* Curvilinear coordinates flag ( True/False ) */
(PID.TID 0000.0001)                   F
(PID.TID 0000.0001)     ;
(PID.TID 0000.0001) useMin4hFacEdges = /* set hFacW,S as minimum of adjacent hFacC factor */
(PID.TID 0000.0001)                   F
(PID.TID 0000.0001)     ;
(PID.TID 0000.0001) interViscAr_pCell = /* account for partial-cell in interior vert. viscosity */
(PID.TID 0000.0001)                   F
(PID.TID 0000.0001)     ;
(PID.TID 0000.0001) interDiffKr_pCell = /* account for partial-cell in interior vert. diffusion */
(PID.TID 0000.0001)                   F
(PID.TID 0000.0001)     ;
(PID.TID 0000.0001) pCellMix_select = /* option to enhance mixing near surface & bottom */
(PID.TID 0000.0001)                       0
(PID.TID 0000.0001)     ;
(PID.TID 0000.0001) selectSigmaCoord = /* Hybrid-Sigma Vert. Coordinate option */
(PID.TID 0000.0001)                       0
(PID.TID 0000.0001)     ;
(PID.TID 0000.0001) rSigmaBnd = /* r/sigma transition ( units of r ==  m ) */
(PID.TID 0000.0001)                 1.234567000000000E+05
(PID.TID 0000.0001)     ;
(PID.TID 0000.0001) rkSign =   /* index orientation relative to vertical coordinate */
(PID.TID 0000.0001)                -1.000000000000000E+00
(PID.TID 0000.0001)     ;
(PID.TID 0000.0001) gravitySign = /* gravity orientation relative to vertical coordinate */
(PID.TID 0000.0001)                -1.000000000000000E+00
(PID.TID 0000.0001)     ;
(PID.TID 0000.0001) seaLev_Z =  /* reference height of sea-level [m] */
(PID.TID 0000.0001)                 0.000000000000000E+00
(PID.TID 0000.0001)     ;
(PID.TID 0000.0001) top_Pres =  /* reference pressure at the top [Pa] */
(PID.TID 0000.0001)                 0.000000000000000E+00
(PID.TID 0000.0001)     ;
(PID.TID 0000.0001) mass2rUnit = /* convert mass per unit area [kg/m2] to r-units [m] */
(PID.TID 0000.0001)                 9.718172983479105E-04
(PID.TID 0000.0001)     ;
(PID.TID 0000.0001) rUnit2mass = /* convert r-units [m] to mass per unit area [kg/m2] */
(PID.TID 0000.0001)                 1.029000000000000E+03
(PID.TID 0000.0001)     ;
(PID.TID 0000.0001) drC =   /* C spacing ( units of r ) */
(PID.TID 0000.0001)                 2.500000000000000E+00,      /* K =  1 */
(PID.TID 0000.0001)    14 @  5.000000000000000E+00,             /* K =  2: 15 */
(PID.TID 0000.0001)                 5.005000000000000E+00,      /* K = 16 */
(PID.TID 0000.0001)                 5.010000000000000E+00,      /* K = 17 */
(PID.TID 0000.0001)                 5.015000000000000E+00,      /* K = 18 */
(PID.TID 0000.0001)                 5.029999999999999E+00,      /* K = 19 */
(PID.TID 0000.0001)                 5.055000000000000E+00,      /* K = 20 */
(PID.TID 0000.0001)                 5.095000000000001E+00,      /* K = 21 */
(PID.TID 0000.0001)                 5.160000000000000E+00,      /* K = 22 */
(PID.TID 0000.0001)                 5.255000000000000E+00,      /* K = 23 */
(PID.TID 0000.0001)                 5.400000000000000E+00,      /* K = 24 */
(PID.TID 0000.0001)                 5.605000000000000E+00,      /* K = 25 */
(PID.TID 0000.0001)                 5.880000000000000E+00,      /* K = 26 */
(PID.TID 0000.0001)                 6.245000000000000E+00,      /* K = 27 */
(PID.TID 0000.0001)                 6.710000000000000E+00,      /* K = 28 */
(PID.TID 0000.0001)                 7.295000000000000E+00,      /* K = 29 */
(PID.TID 0000.0001)                 8.020000000000000E+00,      /* K = 30 */
(PID.TID 0000.0001)                 8.890000000000001E+00,      /* K = 31 */
(PID.TID 0000.0001)                 9.910000000000000E+00,      /* K = 32 */
(PID.TID 0000.0001)                 1.109000000000000E+01,      /* K = 33 */
(PID.TID 0000.0001)                 1.242500000000000E+01,      /* K = 34 */
(PID.TID 0000.0001)                 1.391500000000000E+01,      /* K = 35 */
(PID.TID 0000.0001)                 1.555000000000000E+01,      /* K = 36 */
(PID.TID 0000.0001)                 1.732000000000000E+01,      /* K = 37 */
(PID.TID 0000.0001)                 1.921000000000000E+01,      /* K = 38 */
(PID.TID 0000.0001)                 2.119500000000000E+01,      /* K = 39 */
(PID.TID 0000.0001)                 2.325000000000000E+01,      /* K = 40 */
(PID.TID 0000.0001)                 2.536000000000000E+01,      /* K = 41 */
(PID.TID 0000.0001)                 2.750000000000000E+01,      /* K = 42 */
(PID.TID 0000.0001)                 2.964000000000000E+01,      /* K = 43 */
(PID.TID 0000.0001)                 3.175000000000000E+01,      /* K = 44 */
(PID.TID 0000.0001)                 3.380500000000000E+01,      /* K = 45 */
(PID.TID 0000.0001)                 3.579000000000000E+01,      /* K = 46 */
(PID.TID 0000.0001)                 3.768000000000000E+01,      /* K = 47 */
(PID.TID 0000.0001)                 3.945000000000000E+01,      /* K = 48 */
(PID.TID 0000.0001)                 4.108499999999999E+01,      /* K = 49 */
(PID.TID 0000.0001)                 4.257500000000000E+01,      /* K = 50 */
(PID.TID 0000.0001)                 4.391000000000000E+01,      /* K = 51 */
(PID.TID 0000.0001)                 4.509000000000000E+01,      /* K = 52 */
(PID.TID 0000.0001)                 4.611000000000000E+01,      /* K = 53 */
(PID.TID 0000.0001)                 4.698000000000000E+01,      /* K = 54 */
(PID.TID 0000.0001)                 4.770500000000000E+01,      /* K = 55 */
(PID.TID 0000.0001)                 4.829000000000000E+01,      /* K = 56 */
(PID.TID 0000.0001)                 4.875500000000000E+01,      /* K = 57 */
(PID.TID 0000.0001)                 4.912500000000000E+01,      /* K = 58 */
(PID.TID 0000.0001)                 4.941000000000000E+01,      /* K = 59 */
(PID.TID 0000.0001)                 4.962500000000000E+01,      /* K = 60 */
(PID.TID 0000.0001)                 4.981000000000000E+01,      /* K = 61 */
(PID.TID 0000.0001)                 5.000500000000000E+01,      /* K = 62 */
(PID.TID 0000.0001)                 5.026000000000000E+01,      /* K = 63 */
(PID.TID 0000.0001)                 5.066500000000000E+01,      /* K = 64 */
(PID.TID 0000.0001)                 5.130500000000000E+01,      /* K = 65 */
(PID.TID 0000.0001)                 5.228000000000000E+01,      /* K = 66 */
(PID.TID 0000.0001)                 5.370500000000000E+01,      /* K = 67 */
(PID.TID 0000.0001)                 5.566500000000000E+01,      /* K = 68 */
(PID.TID 0000.0001)                 5.823000000000000E+01,      /* K = 69 */
(PID.TID 0000.0001)                 6.141500000000000E+01,      /* K = 70 */
(PID.TID 0000.0001)                 6.521000000000001E+01,      /* K = 71 */
(PID.TID 0000.0001)                 6.954500000000000E+01,      /* K = 72 */
(PID.TID 0000.0001)                 7.433000000000000E+01,      /* K = 73 */
(PID.TID 0000.0001)                 7.947000000000000E+01,      /* K = 74 */
(PID.TID 0000.0001)                 8.486000000000000E+01,      /* K = 75 */
(PID.TID 0000.0001)                 9.041499999999999E+01,      /* K = 76 */
(PID.TID 0000.0001)                 9.606500000000000E+01,      /* K = 77 */
(PID.TID 0000.0001)                 1.017750000000000E+02,      /* K = 78 */
(PID.TID 0000.0001)                 1.075100000000000E+02,      /* K = 79 */
(PID.TID 0000.0001)                 1.132500000000000E+02,      /* K = 80 */
(PID.TID 0000.0001)                 1.189950000000000E+02,      /* K = 81 */
(PID.TID 0000.0001)                 1.247500000000000E+02,      /* K = 82 */
(PID.TID 0000.0001)                 1.305050000000000E+02,      /* K = 83 */
(PID.TID 0000.0001)                 1.362500000000000E+02,      /* K = 84 */
(PID.TID 0000.0001)                 1.419950000000000E+02,      /* K = 85 */
(PID.TID 0000.0001)                 1.477500000000000E+02,      /* K = 86 */
(PID.TID 0000.0001)                 1.535050000000000E+02,      /* K = 87 */
(PID.TID 0000.0001)                 1.592500000000000E+02,      /* K = 88 */
(PID.TID 0000.0001)                 1.649950000000000E+02,      /* K = 89 */
(PID.TID 0000.0001)                 1.707500000000000E+02,      /* K = 90 */
(PID.TID 0000.0001)                 1.765050000000000E+02,      /* K = 91 */
(PID.TID 0000.0001)                 1.822500000000000E+02,      /* K = 92 */
(PID.TID 0000.0001)                 1.879950000000000E+02,      /* K = 93 */
(PID.TID 0000.0001)                 1.937500000000000E+02,      /* K = 94 */
(PID.TID 0000.0001)                 1.995050000000000E+02,      /* K = 95 */
(PID.TID 0000.0001)                 2.052500000000000E+02,      /* K = 96 */
(PID.TID 0000.0001)                 2.109950000000000E+02,      /* K = 97 */
(PID.TID 0000.0001)                 2.167500000000000E+02,      /* K = 98 */
(PID.TID 0000.0001)                 2.225050000000000E+02,      /* K = 99 */
(PID.TID 0000.0001)                 2.282500000000000E+02,      /* K =100 */
(PID.TID 0000.0001)                 1.155600000000000E+02       /* K =101 */
(PID.TID 0000.0001)     ;
(PID.TID 0000.0001) drF =   /* W spacing ( units of r ) */
(PID.TID 0000.0001)    15 @  5.000000000000000E+00,             /* K =  1: 15 */
(PID.TID 0000.0001)     2 @  5.010000000000000E+00,             /* K = 16: 17 */
(PID.TID 0000.0001)                 5.020000000000000E+00,      /* K = 18 */
(PID.TID 0000.0001)                 5.040000000000000E+00,      /* K = 19 */
(PID.TID 0000.0001)                 5.070000000000000E+00,      /* K = 20 */
(PID.TID 0000.0001)                 5.120000000000000E+00,      /* K = 21 */
(PID.TID 0000.0001)                 5.200000000000000E+00,      /* K = 22 */
(PID.TID 0000.0001)                 5.310000000000000E+00,      /* K = 23 */
(PID.TID 0000.0001)                 5.490000000000000E+00,      /* K = 24 */
(PID.TID 0000.0001)                 5.720000000000000E+00,      /* K = 25 */
(PID.TID 0000.0001)                 6.040000000000000E+00,      /* K = 26 */
(PID.TID 0000.0001)                 6.450000000000000E+00,      /* K = 27 */
(PID.TID 0000.0001)                 6.970000000000000E+00,      /* K = 28 */
(PID.TID 0000.0001)                 7.620000000000000E+00,      /* K = 29 */
(PID.TID 0000.0001)                 8.420000000000000E+00,      /* K = 30 */
(PID.TID 0000.0001)                 9.359999999999999E+00,      /* K = 31 */
(PID.TID 0000.0001)                 1.046000000000000E+01,      /* K = 32 */
(PID.TID 0000.0001)                 1.172000000000000E+01,      /* K = 33 */
(PID.TID 0000.0001)                 1.313000000000000E+01,      /* K = 34 */
(PID.TID 0000.0001)                 1.470000000000000E+01,      /* K = 35 */
(PID.TID 0000.0001)                 1.640000000000000E+01,      /* K = 36 */
(PID.TID 0000.0001)                 1.824000000000000E+01,      /* K = 37 */
(PID.TID 0000.0001)                 2.018000000000000E+01,      /* K = 38 */
(PID.TID 0000.0001)                 2.221000000000000E+01,      /* K = 39 */
(PID.TID 0000.0001)                 2.429000000000000E+01,      /* K = 40 */
(PID.TID 0000.0001)                 2.643000000000000E+01,      /* K = 41 */
(PID.TID 0000.0001)                 2.857000000000000E+01,      /* K = 42 */
(PID.TID 0000.0001)                 3.071000000000000E+01,      /* K = 43 */
(PID.TID 0000.0001)                 3.279000000000000E+01,      /* K = 44 */
(PID.TID 0000.0001)                 3.482000000000000E+01,      /* K = 45 */
(PID.TID 0000.0001)                 3.676000000000000E+01,      /* K = 46 */
(PID.TID 0000.0001)                 3.860000000000000E+01,      /* K = 47 */
(PID.TID 0000.0001)                 4.030000000000000E+01,      /* K = 48 */
(PID.TID 0000.0001)                 4.187000000000000E+01,      /* K = 49 */
(PID.TID 0000.0001)                 4.328000000000000E+01,      /* K = 50 */
(PID.TID 0000.0001)                 4.454000000000000E+01,      /* K = 51 */
(PID.TID 0000.0001)                 4.564000000000000E+01,      /* K = 52 */
(PID.TID 0000.0001)                 4.658000000000000E+01,      /* K = 53 */
(PID.TID 0000.0001)                 4.738000000000000E+01,      /* K = 54 */
(PID.TID 0000.0001)                 4.803000000000000E+01,      /* K = 55 */
(PID.TID 0000.0001)                 4.855000000000000E+01,      /* K = 56 */
(PID.TID 0000.0001)                 4.896000000000000E+01,      /* K = 57 */
(PID.TID 0000.0001)                 4.929000000000000E+01,      /* K = 58 */
(PID.TID 0000.0001)                 4.953000000000000E+01,      /* K = 59 */
(PID.TID 0000.0001)                 4.972000000000000E+01,      /* K = 60 */
(PID.TID 0000.0001)                 4.990000000000000E+01,      /* K = 61 */
(PID.TID 0000.0001)                 5.011000000000000E+01,      /* K = 62 */
(PID.TID 0000.0001)                 5.041000000000000E+01,      /* K = 63 */
(PID.TID 0000.0001)                 5.092000000000000E+01,      /* K = 64 */
(PID.TID 0000.0001)                 5.169000000000000E+01,      /* K = 65 */
(PID.TID 0000.0001)                 5.287000000000000E+01,      /* K = 66 */
(PID.TID 0000.0001)                 5.454000000000000E+01,      /* K = 67 */
(PID.TID 0000.0001)                 5.679000000000000E+01,      /* K = 68 */
(PID.TID 0000.0001)                 5.967000000000000E+01,      /* K = 69 */
(PID.TID 0000.0001)                 6.316000000000000E+01,      /* K = 70 */
(PID.TID 0000.0001)                 6.726000000000001E+01,      /* K = 71 */
(PID.TID 0000.0001)                 7.183000000000000E+01,      /* K = 72 */
(PID.TID 0000.0001)                 7.683000000000000E+01,      /* K = 73 */
(PID.TID 0000.0001)                 8.211000000000000E+01,      /* K = 74 */
(PID.TID 0000.0001)                 8.761000000000000E+01,      /* K = 75 */
(PID.TID 0000.0001)                 9.322000000000000E+01,      /* K = 76 */
(PID.TID 0000.0001)                 9.891000000000000E+01,      /* K = 77 */
(PID.TID 0000.0001)                 1.046400000000000E+02,      /* K = 78 */
(PID.TID 0000.0001)                 1.103800000000000E+02,      /* K = 79 */
(PID.TID 0000.0001)                 1.161200000000000E+02,      /* K = 80 */
(PID.TID 0000.0001)                 1.218700000000000E+02,      /* K = 81 */
(PID.TID 0000.0001)                 1.276300000000000E+02,      /* K = 82 */
(PID.TID 0000.0001)                 1.333800000000000E+02,      /* K = 83 */
(PID.TID 0000.0001)                 1.391200000000000E+02,      /* K = 84 */
(PID.TID 0000.0001)                 1.448700000000000E+02,      /* K = 85 */
(PID.TID 0000.0001)                 1.506300000000000E+02,      /* K = 86 */
(PID.TID 0000.0001)                 1.563800000000000E+02,      /* K = 87 */
(PID.TID 0000.0001)                 1.621200000000000E+02,      /* K = 88 */
(PID.TID 0000.0001)                 1.678700000000000E+02,      /* K = 89 */
(PID.TID 0000.0001)                 1.736300000000000E+02,      /* K = 90 */
(PID.TID 0000.0001)                 1.793800000000000E+02,      /* K = 91 */
(PID.TID 0000.0001)                 1.851200000000000E+02,      /* K = 92 */
(PID.TID 0000.0001)                 1.908700000000000E+02,      /* K = 93 */
(PID.TID 0000.0001)                 1.966300000000000E+02,      /* K = 94 */
(PID.TID 0000.0001)                 2.023800000000000E+02,      /* K = 95 */
(PID.TID 0000.0001)                 2.081200000000000E+02,      /* K = 96 */
(PID.TID 0000.0001)                 2.138700000000000E+02,      /* K = 97 */
(PID.TID 0000.0001)                 2.196300000000000E+02,      /* K = 98 */
(PID.TID 0000.0001)                 2.253800000000000E+02,      /* K = 99 */
(PID.TID 0000.0001)                 2.311200000000000E+02       /* K =100 */
(PID.TID 0000.0001)     ;
(PID.TID 0000.0001) delX = /* U spacing ( m - cartesian, degrees - spherical ) */
(PID.TID 0000.0001)  2160 @  4.166666666666700E-02              /* I =   1:2160 */
(PID.TID 0000.0001)     ;
(PID.TID 0000.0001) delY = /* V spacing ( m - cartesian, degrees - spherical ) */
(PID.TID 0000.0001)                 3.423118591308594E-02,      /* J =  1 */
(PID.TID 0000.0001)                 3.422164916992188E-02,      /* J =  2 */
(PID.TID 0000.0001)                 3.421211242675781E-02,      /* J =  3 */
(PID.TID 0000.0001)      . . .
(PID.TID 0000.0001)                 3.283882141113281E-02,      /* J =133 */
(PID.TID 0000.0001)                 3.282928466796875E-02,      /* J =134 */
(PID.TID 0000.0001)                 3.281784057617188E-02,      /* J =135 */
(PID.TID 0000.0001)                 3.280639648437500E-02,      /* J =136 */
(PID.TID 0000.0001)                 3.279495239257812E-02,      /* J =137 */
(PID.TID 0000.0001)                 3.278350830078125E-02,      /* J =138 */
(PID.TID 0000.0001)      . . .
(PID.TID 0000.0001)                 3.132247924804688E-02,      /* J =268 */
(PID.TID 0000.0001)                 3.130722045898438E-02,      /* J =269 */
(PID.TID 0000.0001)                 3.129959106445312E-02,      /* J =270 */
(PID.TID 0000.0001)                 3.128814697265625E-02,      /* J =271 */
(PID.TID 0000.0001)                 3.127288818359375E-02,      /* J =272 */
(PID.TID 0000.0001)                 3.126525878906250E-02,      /* J =273 */
(PID.TID 0000.0001)      . . .
(PID.TID 0000.0001)                 2.974700927734375E-02,      /* J =403 */
(PID.TID 0000.0001)                 2.973175048828125E-02,      /* J =404 */
(PID.TID 0000.0001)                 2.971649169921875E-02,      /* J =405 */
(PID.TID 0000.0001)                 2.970886230468750E-02,      /* J =406 */
(PID.TID 0000.0001)                 2.969741821289062E-02,      /* J =407 */
(PID.TID 0000.0001)                 2.968597412109375E-02,      /* J =408 */
(PID.TID 0000.0001)      . . .
(PID.TID 0000.0001)                 2.813720703125000E-02,      /* J =538 */
(PID.TID 0000.0001)                 2.812576293945312E-02,      /* J =539 */
(PID.TID 0000.0001)                 2.811431884765625E-02       /* J =540 */
(PID.TID 0000.0001)     ;
(PID.TID 0000.0001) xgOrigin = /* X-axis origin of West  edge (cartesian: m, lat-lon: deg) */
(PID.TID 0000.0001)                -8.300000000000000E+01
(PID.TID 0000.0001)     ;
(PID.TID 0000.0001) ygOrigin = /* Y-axis origin of South edge (cartesian: m, lat-lon: deg) */
(PID.TID 0000.0001)                 2.665005493164062E+01
(PID.TID 0000.0001)     ;
(PID.TID 0000.0001) rSphere =  /* Radius ( ignored - cartesian, m - spherical ) */
(PID.TID 0000.0001)                 6.370000000000000E+06
(PID.TID 0000.0001)     ;
(PID.TID 0000.0001) deepAtmosphere = /* Deep/Shallow Atmosphere flag (True/False) */
(PID.TID 0000.0001)                   F
(PID.TID 0000.0001)     ;
(PID.TID 0000.0001) xC =  /* xC(:,1,:,1) : P-point X coord ( deg. or m if cartesian) */
(PID.TID 0000.0001)                -8.297916666666666E+01,      /* I =  1 */
(PID.TID 0000.0001)                -8.293750000000000E+01,      /* I =  2 */
(PID.TID 0000.0001)                -8.289583333333331E+01,      /* I =  3 */
(PID.TID 0000.0001)      . . .
(PID.TID 0000.0001)                -8.214583333333323E+01,      /* I = 21 */
(PID.TID 0000.0001)                -8.210416666666657E+01,      /* I = 22 */
(PID.TID 0000.0001)                -8.206249999999989E+01,      /* I = 23 */
(PID.TID 0000.0001)                -8.202083333333323E+01,      /* I = 24 */
(PID.TID 0000.0001)                -8.197916666666654E+01,      /* I = 25 */
(PID.TID 0000.0001)                -8.193749999999989E+01,      /* I = 26 */
(PID.TID 0000.0001)      . . .
(PID.TID 0000.0001)                -8.122916666666646E+01,      /* I = 43 */
(PID.TID 0000.0001)                -8.118749999999980E+01,      /* I = 44 */
(PID.TID 0000.0001)                -8.114583333333312E+01,      /* I = 45 */
(PID.TID 0000.0001)                -8.110416666666646E+01,      /* I = 46 */
(PID.TID 0000.0001)                -8.106249999999977E+01,      /* I = 47 */
(PID.TID 0000.0001)                -8.102083333333312E+01,      /* I = 48 */
(PID.TID 0000.0001)      . . .
(PID.TID 0000.0001)                -8.031249999999969E+01,      /* I = 65 */
(PID.TID 0000.0001)                -8.027083333333303E+01,      /* I = 66 */
(PID.TID 0000.0001)                -8.022916666666634E+01,      /* I = 67 */
(PID.TID 0000.0001)                -8.018749999999969E+01,      /* I = 68 */
(PID.TID 0000.0001)                -8.014583333333300E+01,      /* I = 69 */
(PID.TID 0000.0001)                -8.010416666666634E+01,      /* I = 70 */
(PID.TID 0000.0001)      . . .
(PID.TID 0000.0001)                -7.935416666666626E+01,      /* I = 88 */
(PID.TID 0000.0001)                -7.931249999999957E+01,      /* I = 89 */
(PID.TID 0000.0001)                -7.927083333333292E+01       /* I = 90 */
(PID.TID 0000.0001)     ;
(PID.TID 0000.0001) yC =  /* yC(1,:,1,:) : P-point Y coord ( deg. or m if cartesian) */
(PID.TID 0000.0001)                 2.666717052459717E+01,      /* J =  1 */
(PID.TID 0000.0001)                 2.670139694213867E+01,      /* J =  2 */
(PID.TID 0000.0001)                 2.673561382293701E+01,      /* J =  3 */
(PID.TID 0000.0001)      . . .
(PID.TID 0000.0001)                 2.734977054595947E+01,      /* J = 21 */
(PID.TID 0000.0001)                 2.738379383087158E+01,      /* J = 22 */
(PID.TID 0000.0001)                 2.741780662536621E+01,      /* J = 23 */
(PID.TID 0000.0001)                 2.745180892944336E+01,      /* J = 24 */
(PID.TID 0000.0001)                 2.748580074310303E+01,      /* J = 25 */
(PID.TID 0000.0001)                 2.751978206634521E+01,      /* J = 26 */
(PID.TID 0000.0001)      . . .
(PID.TID 0000.0001)                 2.809589099884033E+01,      /* J = 43 */
(PID.TID 0000.0001)                 2.812968635559082E+01,      /* J = 44 */
(PID.TID 0000.0001)                 2.816347122192383E+01,      /* J = 45 */
(PID.TID 0000.0001)                 2.819724559783936E+01,      /* J = 46 */
(PID.TID 0000.0001)                 2.823101043701172E+01,      /* J = 47 */
(PID.TID 0000.0001)                 2.826476478576660E+01,      /* J = 48 */
(PID.TID 0000.0001)      . . .
(PID.TID 0000.0001)                 2.883697605133057E+01,      /* J = 65 */
(PID.TID 0000.0001)                 2.887054157257080E+01,      /* J = 66 */
(PID.TID 0000.0001)                 2.890409564971924E+01,      /* J = 67 */
(PID.TID 0000.0001)                 2.893763923645020E+01,      /* J = 68 */
(PID.TID 0000.0001)                 2.897117233276367E+01,      /* J = 69 */
(PID.TID 0000.0001)                 2.900469493865967E+01,      /* J = 70 */
(PID.TID 0000.0001)      . . .
(PID.TID 0000.0001)                 2.960628890991211E+01,      /* J = 88 */
(PID.TID 0000.0001)                 2.963960933685303E+01,      /* J = 89 */
(PID.TID 0000.0001)                 2.967291927337646E+01       /* J = 90 */
(PID.TID 0000.0001)     ;
(PID.TID 0000.0001) rcoord = /* P-point R coordinate (  units of r ) */
(PID.TID 0000.0001)                -2.500000000000000E+00,      /* K =  1 */
(PID.TID 0000.0001)                -7.500000000000000E+00,      /* K =  2 */
(PID.TID 0000.0001)                -1.250000000000000E+01,      /* K =  3 */
(PID.TID 0000.0001)                -1.750000000000000E+01,      /* K =  4 */
(PID.TID 0000.0001)                -2.250000000000000E+01,      /* K =  5 */
(PID.TID 0000.0001)                -2.750000000000000E+01,      /* K =  6 */
(PID.TID 0000.0001)                -3.250000000000000E+01,      /* K =  7 */
(PID.TID 0000.0001)                -3.750000000000000E+01,      /* K =  8 */
(PID.TID 0000.0001)                -4.250000000000000E+01,      /* K =  9 */
(PID.TID 0000.0001)                -4.750000000000000E+01,      /* K = 10 */
(PID.TID 0000.0001)                -5.250000000000000E+01,      /* K = 11 */
(PID.TID 0000.0001)                -5.750000000000000E+01,      /* K = 12 */
(PID.TID 0000.0001)                -6.250000000000000E+01,      /* K = 13 */
(PID.TID 0000.0001)                -6.750000000000000E+01,      /* K = 14 */
(PID.TID 0000.0001)                -7.250000000000000E+01,      /* K = 15 */
(PID.TID 0000.0001)                -7.750500000000000E+01,      /* K = 16 */
(PID.TID 0000.0001)                -8.251500000000000E+01,      /* K = 17 */
(PID.TID 0000.0001)                -8.753000000000000E+01,      /* K = 18 */
(PID.TID 0000.0001)                -9.256000000000000E+01,      /* K = 19 */
(PID.TID 0000.0001)                -9.761500000000001E+01,      /* K = 20 */
(PID.TID 0000.0001)                -1.027100000000000E+02,      /* K = 21 */
(PID.TID 0000.0001)                -1.078700000000000E+02,      /* K = 22 */
(PID.TID 0000.0001)                -1.131250000000000E+02,      /* K = 23 */
(PID.TID 0000.0001)                -1.185250000000000E+02,      /* K = 24 */
(PID.TID 0000.0001)                -1.241300000000000E+02,      /* K = 25 */
(PID.TID 0000.0001)                -1.300100000000000E+02,      /* K = 26 */
(PID.TID 0000.0001)                -1.362550000000000E+02,      /* K = 27 */
(PID.TID 0000.0001)                -1.429650000000000E+02,      /* K = 28 */
(PID.TID 0000.0001)                -1.502600000000000E+02,      /* K = 29 */
(PID.TID 0000.0001)                -1.582800000000000E+02,      /* K = 30 */
(PID.TID 0000.0001)                -1.671700000000000E+02,      /* K = 31 */
(PID.TID 0000.0001)                -1.770800000000000E+02,      /* K = 32 */
(PID.TID 0000.0001)                -1.881700000000000E+02,      /* K = 33 */
(PID.TID 0000.0001)                -2.005950000000000E+02,      /* K = 34 */
(PID.TID 0000.0001)                -2.145100000000000E+02,      /* K = 35 */
(PID.TID 0000.0001)                -2.300600000000000E+02,      /* K = 36 */
(PID.TID 0000.0001)                -2.473800000000000E+02,      /* K = 37 */
(PID.TID 0000.0001)                -2.665900000000000E+02,      /* K = 38 */
(PID.TID 0000.0001)                -2.877850000000000E+02,      /* K = 39 */
(PID.TID 0000.0001)                -3.110350000000000E+02,      /* K = 40 */
(PID.TID 0000.0001)                -3.363950000000000E+02,      /* K = 41 */
(PID.TID 0000.0001)                -3.638950000000000E+02,      /* K = 42 */
(PID.TID 0000.0001)                -3.935350000000000E+02,      /* K = 43 */
(PID.TID 0000.0001)                -4.252850000000000E+02,      /* K = 44 */
(PID.TID 0000.0001)                -4.590900000000000E+02,      /* K = 45 */
(PID.TID 0000.0001)                -4.948800000000001E+02,      /* K = 46 */
(PID.TID 0000.0001)                -5.325600000000001E+02,      /* K = 47 */
(PID.TID 0000.0001)                -5.720100000000001E+02,      /* K = 48 */
(PID.TID 0000.0001)                -6.130950000000001E+02,      /* K = 49 */
(PID.TID 0000.0001)                -6.556700000000002E+02,      /* K = 50 */
(PID.TID 0000.0001)                -6.995800000000002E+02,      /* K = 51 */
(PID.TID 0000.0001)                -7.446700000000002E+02,      /* K = 52 */
(PID.TID 0000.0001)                -7.907800000000002E+02,      /* K = 53 */
(PID.TID 0000.0001)                -8.377600000000002E+02,      /* K = 54 */
(PID.TID 0000.0001)                -8.854650000000003E+02,      /* K = 55 */
(PID.TID 0000.0001)                -9.337550000000002E+02,      /* K = 56 */
(PID.TID 0000.0001)                -9.825100000000002E+02,      /* K = 57 */
(PID.TID 0000.0001)                -1.031635000000000E+03,      /* K = 58 */
(PID.TID 0000.0001)                -1.081045000000000E+03,      /* K = 59 */
(PID.TID 0000.0001)                -1.130670000000000E+03,      /* K = 60 */
(PID.TID 0000.0001)                -1.180480000000000E+03,      /* K = 61 */
(PID.TID 0000.0001)                -1.230485000000000E+03,      /* K = 62 */
(PID.TID 0000.0001)                -1.280745000000000E+03,      /* K = 63 */
(PID.TID 0000.0001)                -1.331410000000000E+03,      /* K = 64 */
(PID.TID 0000.0001)                -1.382715000000000E+03,      /* K = 65 */
(PID.TID 0000.0001)                -1.434995000000000E+03,      /* K = 66 */
(PID.TID 0000.0001)                -1.488700000000000E+03,      /* K = 67 */
(PID.TID 0000.0001)                -1.544365000000000E+03,      /* K = 68 */
(PID.TID 0000.0001)                -1.602595000000000E+03,      /* K = 69 */
(PID.TID 0000.0001)                -1.664010000000000E+03,      /* K = 70 */
(PID.TID 0000.0001)                -1.729220000000000E+03,      /* K = 71 */
(PID.TID 0000.0001)                -1.798765000000000E+03,      /* K = 72 */
(PID.TID 0000.0001)                -1.873095000000000E+03,      /* K = 73 */
(PID.TID 0000.0001)                -1.952565000000000E+03,      /* K = 74 */
(PID.TID 0000.0001)                -2.037425000000000E+03,      /* K = 75 */
(PID.TID 0000.0001)                -2.127840000000000E+03,      /* K = 76 */
(PID.TID 0000.0001)                -2.223905000000000E+03,      /* K = 77 */
(PID.TID 0000.0001)                -2.325680000000000E+03,      /* K = 78 */
(PID.TID 0000.0001)                -2.433190000000001E+03,      /* K = 79 */
(PID.TID 0000.0001)                -2.546440000000001E+03,      /* K = 80 */
(PID.TID 0000.0001)                -2.665435000000000E+03,      /* K = 81 */
(PID.TID 0000.0001)                -2.790185000000000E+03,      /* K = 82 */
(PID.TID 0000.0001)                -2.920690000000001E+03,      /* K = 83 */
(PID.TID 0000.0001)                -3.056940000000001E+03,      /* K = 84 */
(PID.TID 0000.0001)                -3.198935000000000E+03,      /* K = 85 */
(PID.TID 0000.0001)                -3.346685000000000E+03,      /* K = 86 */
(PID.TID 0000.0001)                -3.500190000000001E+03,      /* K = 87 */
(PID.TID 0000.0001)                -3.659440000000001E+03,      /* K = 88 */
(PID.TID 0000.0001)                -3.824435000000000E+03,      /* K = 89 */
(PID.TID 0000.0001)                -3.995185000000000E+03,      /* K = 90 */
(PID.TID 0000.0001)                -4.171690000000001E+03,      /* K = 91 */
(PID.TID 0000.0001)                -4.353940000000001E+03,      /* K = 92 */
(PID.TID 0000.0001)                -4.541935000000000E+03,      /* K = 93 */
(PID.TID 0000.0001)                -4.735685000000000E+03,      /* K = 94 */
(PID.TID 0000.0001)                -4.935190000000001E+03,      /* K = 95 */
(PID.TID 0000.0001)                -5.140440000000001E+03,      /* K = 96 */
(PID.TID 0000.0001)                -5.351435000000000E+03,      /* K = 97 */
(PID.TID 0000.0001)                -5.568185000000000E+03,      /* K = 98 */
(PID.TID 0000.0001)                -5.790690000000001E+03,      /* K = 99 */
(PID.TID 0000.0001)                -6.018940000000001E+03       /* K =100 */
(PID.TID 0000.0001)     ;
(PID.TID 0000.0001) rF =   /* W-Interf. R coordinate (  units of r ) */
(PID.TID 0000.0001)                 0.000000000000000E+00,      /* K =  1 */
(PID.TID 0000.0001)                -5.000000000000000E+00,      /* K =  2 */
(PID.TID 0000.0001)                -1.000000000000000E+01,      /* K =  3 */
(PID.TID 0000.0001)                -1.500000000000000E+01,      /* K =  4 */
(PID.TID 0000.0001)                -2.000000000000000E+01,      /* K =  5 */
(PID.TID 0000.0001)                -2.500000000000000E+01,      /* K =  6 */
(PID.TID 0000.0001)                -3.000000000000000E+01,      /* K =  7 */
(PID.TID 0000.0001)                -3.500000000000000E+01,      /* K =  8 */
(PID.TID 0000.0001)                -4.000000000000000E+01,      /* K =  9 */
(PID.TID 0000.0001)                -4.500000000000000E+01,      /* K = 10 */
(PID.TID 0000.0001)                -5.000000000000000E+01,      /* K = 11 */
(PID.TID 0000.0001)                -5.500000000000000E+01,      /* K = 12 */
(PID.TID 0000.0001)                -6.000000000000000E+01,      /* K = 13 */
(PID.TID 0000.0001)                -6.500000000000000E+01,      /* K = 14 */
(PID.TID 0000.0001)                -7.000000000000000E+01,      /* K = 15 */
(PID.TID 0000.0001)                -7.500000000000000E+01,      /* K = 16 */
(PID.TID 0000.0001)                -8.001000000000001E+01,      /* K = 17 */
(PID.TID 0000.0001)                -8.502000000000001E+01,      /* K = 18 */
(PID.TID 0000.0001)                -9.004000000000001E+01,      /* K = 19 */
(PID.TID 0000.0001)                -9.508000000000001E+01,      /* K = 20 */
(PID.TID 0000.0001)                -1.001500000000000E+02,      /* K = 21 */
(PID.TID 0000.0001)                -1.052700000000000E+02,      /* K = 22 */
(PID.TID 0000.0001)                -1.104700000000000E+02,      /* K = 23 */
(PID.TID 0000.0001)                -1.157800000000000E+02,      /* K = 24 */
(PID.TID 0000.0001)                -1.212700000000000E+02,      /* K = 25 */
(PID.TID 0000.0001)                -1.269900000000000E+02,      /* K = 26 */
(PID.TID 0000.0001)                -1.330300000000000E+02,      /* K = 27 */
(PID.TID 0000.0001)                -1.394800000000000E+02,      /* K = 28 */
(PID.TID 0000.0001)                -1.464500000000000E+02,      /* K = 29 */
(PID.TID 0000.0001)                -1.540700000000000E+02,      /* K = 30 */
(PID.TID 0000.0001)                -1.624900000000000E+02,      /* K = 31 */
(PID.TID 0000.0001)                -1.718500000000000E+02,      /* K = 32 */
(PID.TID 0000.0001)                -1.823100000000000E+02,      /* K = 33 */
(PID.TID 0000.0001)                -1.940300000000000E+02,      /* K = 34 */
(PID.TID 0000.0001)                -2.071600000000000E+02,      /* K = 35 */
(PID.TID 0000.0001)                -2.218600000000000E+02,      /* K = 36 */
(PID.TID 0000.0001)                -2.382600000000000E+02,      /* K = 37 */
(PID.TID 0000.0001)                -2.564999999999999E+02,      /* K = 38 */
(PID.TID 0000.0001)                -2.766799999999999E+02,      /* K = 39 */
(PID.TID 0000.0001)                -2.988899999999999E+02,      /* K = 40 */
(PID.TID 0000.0001)                -3.231799999999999E+02,      /* K = 41 */
(PID.TID 0000.0001)                -3.496100000000000E+02,      /* K = 42 */
(PID.TID 0000.0001)                -3.781799999999999E+02,      /* K = 43 */
(PID.TID 0000.0001)                -4.088899999999999E+02,      /* K = 44 */
(PID.TID 0000.0001)                -4.416799999999999E+02,      /* K = 45 */
(PID.TID 0000.0001)                -4.764999999999999E+02,      /* K = 46 */
(PID.TID 0000.0001)                -5.132600000000000E+02,      /* K = 47 */
(PID.TID 0000.0001)                -5.518600000000000E+02,      /* K = 48 */
(PID.TID 0000.0001)                -5.921600000000000E+02,      /* K = 49 */
(PID.TID 0000.0001)                -6.340300000000000E+02,      /* K = 50 */
(PID.TID 0000.0001)                -6.773099999999999E+02,      /* K = 51 */
(PID.TID 0000.0001)                -7.218499999999999E+02,      /* K = 52 */
(PID.TID 0000.0001)                -7.674899999999999E+02,      /* K = 53 */
(PID.TID 0000.0001)                -8.140699999999999E+02,      /* K = 54 */
(PID.TID 0000.0001)                -8.614499999999999E+02,      /* K = 55 */
(PID.TID 0000.0001)                -9.094799999999999E+02,      /* K = 56 */
(PID.TID 0000.0001)                -9.580299999999999E+02,      /* K = 57 */
(PID.TID 0000.0001)                -1.006990000000000E+03,      /* K = 58 */
(PID.TID 0000.0001)                -1.056280000000000E+03,      /* K = 59 */
(PID.TID 0000.0001)                -1.105810000000000E+03,      /* K = 60 */
(PID.TID 0000.0001)                -1.155530000000000E+03,      /* K = 61 */
(PID.TID 0000.0001)                -1.205430000000000E+03,      /* K = 62 */
(PID.TID 0000.0001)                -1.255540000000000E+03,      /* K = 63 */
(PID.TID 0000.0001)                -1.305950000000000E+03,      /* K = 64 */
(PID.TID 0000.0001)                -1.356870000000000E+03,      /* K = 65 */
(PID.TID 0000.0001)                -1.408560000000000E+03,      /* K = 66 */
(PID.TID 0000.0001)                -1.461430000000000E+03,      /* K = 67 */
(PID.TID 0000.0001)                -1.515970000000000E+03,      /* K = 68 */
(PID.TID 0000.0001)                -1.572760000000000E+03,      /* K = 69 */
(PID.TID 0000.0001)                -1.632430000000000E+03,      /* K = 70 */
(PID.TID 0000.0001)                -1.695590000000000E+03,      /* K = 71 */
(PID.TID 0000.0001)                -1.762850000000000E+03,      /* K = 72 */
(PID.TID 0000.0001)                -1.834680000000000E+03,      /* K = 73 */
(PID.TID 0000.0001)                -1.911510000000000E+03,      /* K = 74 */
(PID.TID 0000.0001)                -1.993620000000000E+03,      /* K = 75 */
(PID.TID 0000.0001)                -2.081230000000000E+03,      /* K = 76 */
(PID.TID 0000.0001)                -2.174450000000000E+03,      /* K = 77 */
(PID.TID 0000.0001)                -2.273360000000000E+03,      /* K = 78 */
(PID.TID 0000.0001)                -2.378000000000000E+03,      /* K = 79 */
(PID.TID 0000.0001)                -2.488380000000000E+03,      /* K = 80 */
(PID.TID 0000.0001)                -2.604500000000000E+03,      /* K = 81 */
(PID.TID 0000.0001)                -2.726369999999999E+03,      /* K = 82 */
(PID.TID 0000.0001)                -2.854000000000000E+03,      /* K = 83 */
(PID.TID 0000.0001)                -2.987380000000000E+03,      /* K = 84 */
(PID.TID 0000.0001)                -3.126500000000000E+03,      /* K = 85 */
(PID.TID 0000.0001)                -3.271369999999999E+03,      /* K = 86 */
(PID.TID 0000.0001)                -3.422000000000000E+03,      /* K = 87 */
(PID.TID 0000.0001)                -3.578380000000000E+03,      /* K = 88 */
(PID.TID 0000.0001)                -3.740500000000000E+03,      /* K = 89 */
(PID.TID 0000.0001)                -3.908369999999999E+03,      /* K = 90 */
(PID.TID 0000.0001)                -4.082000000000000E+03,      /* K = 91 */
(PID.TID 0000.0001)                -4.261379999999999E+03,      /* K = 92 */
(PID.TID 0000.0001)                -4.446499999999999E+03,      /* K = 93 */
(PID.TID 0000.0001)                -4.637369999999999E+03,      /* K = 94 */
(PID.TID 0000.0001)                -4.833999999999999E+03,      /* K = 95 */
(PID.TID 0000.0001)                -5.036379999999999E+03,      /* K = 96 */
(PID.TID 0000.0001)                -5.244499999999999E+03,      /* K = 97 */
(PID.TID 0000.0001)                -5.458369999999999E+03,      /* K = 98 */
(PID.TID 0000.0001)                -5.677999999999999E+03,      /* K = 99 */
(PID.TID 0000.0001)                -5.903379999999999E+03,      /* K =100 */
(PID.TID 0000.0001)                -6.134499999999999E+03       /* K =101 */
(PID.TID 0000.0001)     ;
(PID.TID 0000.0001) deepFacC = /* deep-model grid factor @ cell-Center (-) */
(PID.TID 0000.0001)   100 @  1.000000000000000E+00              /* K =  1:100 */
(PID.TID 0000.0001)     ;
(PID.TID 0000.0001) deepFacF = /* deep-model grid factor @ W-Interface (-) */
(PID.TID 0000.0001)   101 @  1.000000000000000E+00              /* K =  1:101 */
(PID.TID 0000.0001)     ;
(PID.TID 0000.0001) rVel2wUnit = /* convert units: rVel -> wSpeed (=1 if z-coord)*/
(PID.TID 0000.0001)   101 @  1.000000000000000E+00              /* K =  1:101 */
(PID.TID 0000.0001)     ;
(PID.TID 0000.0001) wUnit2rVel = /* convert units: wSpeed -> rVel (=1 if z-coord)*/
(PID.TID 0000.0001)   101 @  1.000000000000000E+00              /* K =  1:101 */
(PID.TID 0000.0001)     ;
(PID.TID 0000.0001) dBdrRef = /* Vertical grad. of reference buoyancy [(m/s/r)^2] */
(PID.TID 0000.0001)     5 @  0.000000000000000E+00,             /* K =  1:  5 */
(PID.TID 0000.0001)                 9.694282843778342E-06,      /* K =  6 */
(PID.TID 0000.0001)                 2.426513223807763E-05,      /* K =  7 */
(PID.TID 0000.0001)                 1.452975530153167E-05,      /* K =  8 */
(PID.TID 0000.0001)                 9.681498625854328E-06,      /* K =  9 */
(PID.TID 0000.0001)                 4.842099844624020E-05,      /* K = 10 */
(PID.TID 0000.0001)                 6.280856330023614E-05,      /* K = 11 */
(PID.TID 0000.0001)                 8.185617076656702E-05,      /* K = 12 */
(PID.TID 0000.0001)                 1.295252644691406E-04,      /* K = 13 */
(PID.TID 0000.0001)                 1.095351351384002E-04,      /* K = 14 */
(PID.TID 0000.0001)                 1.329169312007239E-04,      /* K = 15 */
(PID.TID 0000.0001)                 1.367041979360881E-04,      /* K = 16 */
(PID.TID 0000.0001)                 1.211727126593573E-04,      /* K = 17 */
(PID.TID 0000.0001)                 1.302265701121417E-04,      /* K = 18 */
(PID.TID 0000.0001)                 1.190854314588815E-04,      /* K = 19 */
(PID.TID 0000.0001)                 1.132023267377615E-04,      /* K = 20 */
(PID.TID 0000.0001)                 1.071632265654582E-04,      /* K = 21 */
(PID.TID 0000.0001)                 1.051393672457803E-04,      /* K = 22 */
(PID.TID 0000.0001)                 1.025752720636568E-04,      /* K = 23 */
(PID.TID 0000.0001)                 9.917395824143918E-05,      /* K = 24 */
(PID.TID 0000.0001)                 9.104030067387556E-05,      /* K = 25 */
(PID.TID 0000.0001)                 8.624441260795840E-05,      /* K = 26 */
(PID.TID 0000.0001)                 8.413036901537412E-05,      /* K = 27 */
(PID.TID 0000.0001)                 6.366728012651445E-05,      /* K = 28 */
(PID.TID 0000.0001)                 5.812092618380799E-05,      /* K = 29 */
(PID.TID 0000.0001)                 5.507951137016039E-05,      /* K = 30 */
(PID.TID 0000.0001)                 4.695510592930360E-05,      /* K = 31 */
(PID.TID 0000.0001)                 4.596409715692217E-05,      /* K = 32 */
(PID.TID 0000.0001)                 4.072795425761271E-05,      /* K = 33 */
(PID.TID 0000.0001)                 3.175298295526856E-05,      /* K = 34 */
(PID.TID 0000.0001)                 3.093452381022950E-05,      /* K = 35 */
(PID.TID 0000.0001)                 2.864003459600112E-05,      /* K = 36 */
(PID.TID 0000.0001)                 2.767315329576147E-05,      /* K = 37 */
(PID.TID 0000.0001)                 2.463000191580109E-05,      /* K = 38 */
(PID.TID 0000.0001)                 2.475053767167416E-05,      /* K = 39 */
(PID.TID 0000.0001)                 1.906506350221241E-05,      /* K = 40 */
(PID.TID 0000.0001)                 1.865582618722828E-05,      /* K = 41 */
(PID.TID 0000.0001)                 1.823366094760355E-05,      /* K = 42 */
(PID.TID 0000.0001)                 1.471037885515795E-05,      /* K = 43 */
(PID.TID 0000.0001)                 1.630603945735049E-05,      /* K = 44 */
(PID.TID 0000.0001)                 1.384745352787863E-05,      /* K = 45 */
(PID.TID 0000.0001)                 1.226594411185851E-05,      /* K = 46 */
(PID.TID 0000.0001)                 1.225310460290910E-05,      /* K = 47 */
(PID.TID 0000.0001)                 1.223011113144029E-05,      /* K = 48 */
(PID.TID 0000.0001)                 1.061638239990844E-05,      /* K = 49 */
(PID.TID 0000.0001)                 1.070650633014499E-05,      /* K = 50 */
(PID.TID 0000.0001)                 9.357472423340062E-06,      /* K = 51 */
(PID.TID 0000.0001)                 9.812756875994976E-06,      /* K = 52 */
(PID.TID 0000.0001)                 9.364680965538371E-06,      /* K = 53 */
(PID.TID 0000.0001)                 6.430982300518885E-06,      /* K = 54 */
(PID.TID 0000.0001)                 8.970058816087760E-06,      /* K = 55 */
(PID.TID 0000.0001)                 8.398462027768182E-06,      /* K = 56 */
(PID.TID 0000.0001)                 7.294531901104187E-06,      /* K = 57 */
(PID.TID 0000.0001)                 8.642565592484861E-06,      /* K = 58 */
(PID.TID 0000.0001)                 6.405731826441176E-06,      /* K = 59 */
(PID.TID 0000.0001)                 8.743452988220992E-06,      /* K = 60 */
(PID.TID 0000.0001)                 6.590306221026928E-06,      /* K = 61 */
(PID.TID 0000.0001)                 7.462277694900194E-06,      /* K = 62 */
(PID.TID 0000.0001)                 5.625478499738029E-06,      /* K = 63 */
(PID.TID 0000.0001)                 6.494457456351866E-06,      /* K = 64 */
(PID.TID 0000.0001)                 5.872364624284492E-06,      /* K = 65 */
(PID.TID 0000.0001)                 5.495436518643386E-06,      /* K = 66 */
(PID.TID 0000.0001)                 5.094601592541214E-06,      /* K = 67 */
(PID.TID 0000.0001)                 4.437172619322077E-06,      /* K = 68 */
(PID.TID 0000.0001)                 4.016940542409763E-06,      /* K = 69 */
(PID.TID 0000.0001)                 4.028908121728164E-06,      /* K = 70 */
(PID.TID 0000.0001)                 2.246388502686123E-06,      /* K = 71 */
(PID.TID 0000.0001)                 2.998142894531076E-06,      /* K = 72 */
(PID.TID 0000.0001)                 2.815413573924730E-06,      /* K = 73 */
(PID.TID 0000.0001)                 2.814329879263964E-06,      /* K = 74 */
(PID.TID 0000.0001)                 2.327158902006369E-06,      /* K = 75 */
(PID.TID 0000.0001)                 1.523559191918705E-06,      /* K = 76 */
(PID.TID 0000.0001)                 2.223754279938488E-06,      /* K = 77 */
(PID.TID 0000.0001)                 1.243572598777220E-06,      /* K = 78 */
(PID.TID 0000.0001)                 1.884009398486976E-06,      /* K = 79 */
(PID.TID 0000.0001)                 1.146309977456730E-06,      /* K = 80 */
(PID.TID 0000.0001)                 9.836409573498765E-07,      /* K = 81 */
(PID.TID 0000.0001)                 1.666564082034753E-06,      /* K = 82 */
(PID.TID 0000.0001)                 8.096789666921265E-07,      /* K = 83 */
(PID.TID 0000.0001)                 9.015806361848934E-07,      /* K = 84 */
(PID.TID 0000.0001)                 9.899996711216439E-07,      /* K = 85 */
(PID.TID 0000.0001)                 1.360959195968683E-06,      /* K = 86 */
(PID.TID 0000.0001)                 3.633635105266278E-07,      /* K = 87 */
(PID.TID 0000.0001)                 7.257552276248978E-07,      /* K = 88 */
(PID.TID 0000.0001)                 8.165089567519712E-07,      /* K = 89 */
(PID.TID 0000.0001)                 7.043987264958734E-07,      /* K = 90 */
(PID.TID 0000.0001)                 6.956983617110328E-07,      /* K = 91 */
(PID.TID 0000.0001)                 6.880703959048398E-07,      /* K = 92 */
(PID.TID 0000.0001)                 6.813676413074075E-07,      /* K = 93 */
(PID.TID 0000.0001)                 6.754628223828996E-07,      /* K = 94 */
(PID.TID 0000.0001)                 3.049729588883796E-07,      /* K = 95 */
(PID.TID 0000.0001)                 6.657955553385863E-07,      /* K = 96 */
(PID.TID 0000.0001)                 5.675084375793845E-07,      /* K = 97 */
(PID.TID 0000.0001)                 3.767262833194376E-07,      /* K = 98 */
(PID.TID 0000.0001)                 2.816808424830599E-07,      /* K = 99 */
(PID.TID 0000.0001)                 1.873891169846885E-07       /* K =100 */
(PID.TID 0000.0001)     ;
(PID.TID 0000.0001) rotateGrid = /* use rotated grid ( True/False ) */
(PID.TID 0000.0001)                   F
(PID.TID 0000.0001)     ;
(PID.TID 0000.0001) phiEuler = /* Euler angle, rotation about original z-coordinate [rad] */
(PID.TID 0000.0001)                 0.000000000000000E+00
(PID.TID 0000.0001)     ;
(PID.TID 0000.0001) thetaEuler = /* Euler angle, rotation about new x-coordinate [rad] */
(PID.TID 0000.0001)                 0.000000000000000E+00
(PID.TID 0000.0001)     ;
(PID.TID 0000.0001) psiEuler = /* Euler angle, rotation about new z-coordinate [rad] */
(PID.TID 0000.0001)                 0.000000000000000E+00
(PID.TID 0000.0001)     ;
(PID.TID 0000.0001) dxF =  /* dxF(:,1,:,1) ( units: m ) */
(PID.TID 0000.0001)    90 @  4.139640844360528E+03              /* I =  1: 90 */
(PID.TID 0000.0001)     ;
(PID.TID 0000.0001) dxF =  /* dxF(1,:,1,:) ( units: m ) */
(PID.TID 0000.0001)                 4.139640844360528E+03,      /* J =  1 */
(PID.TID 0000.0001)                 4.138398156068276E+03,      /* J =  2 */
(PID.TID 0000.0001)                 4.137154337892096E+03,      /* J =  3 */
(PID.TID 0000.0001)      . . .
(PID.TID 0000.0001)                 4.114578631903650E+03,      /* J = 21 */
(PID.TID 0000.0001)                 4.113314130015837E+03,      /* J = 22 */
(PID.TID 0000.0001)                 4.112048568245555E+03,      /* J = 23 */
(PID.TID 0000.0001)                 4.110781948379812E+03,      /* J = 24 */
(PID.TID 0000.0001)                 4.109514272204890E+03,      /* J = 25 */
(PID.TID 0000.0001)                 4.108245541506343E+03,      /* J = 26 */
(PID.TID 0000.0001)      . . .
(PID.TID 0000.0001)                 4.086516305844601E+03,      /* J = 43 */
(PID.TID 0000.0001)                 4.085228787830029E+03,      /* J = 44 */
(PID.TID 0000.0001)                 4.083940248837513E+03,      /* J = 45 */
(PID.TID 0000.0001)                 4.082650690638008E+03,      /* J = 46 */
(PID.TID 0000.0001)                 4.081360078528878E+03,      /* J = 47 */
(PID.TID 0000.0001)                 4.080068450672382E+03,      /* J = 48 */
(PID.TID 0000.0001)      . . .
(PID.TID 0000.0001)                 4.057957376278871E+03,      /* J = 65 */
(PID.TID 0000.0001)                 4.056647767010304E+03,      /* J = 66 */
(PID.TID 0000.0001)                 4.055337212739030E+03,      /* J = 67 */
(PID.TID 0000.0001)                 4.054025678029965E+03,      /* J = 68 */
(PID.TID 0000.0001)                 4.052713164636506E+03,      /* J = 69 */
(PID.TID 0000.0001)                 4.051399674311273E+03,      /* J = 70 */
(PID.TID 0000.0001)      . . .
(PID.TID 0000.0001)                 4.027592548301442E+03,      /* J = 88 */
(PID.TID 0000.0001)                 4.026260943407077E+03,      /* J = 89 */
(PID.TID 0000.0001)                 4.024928396702262E+03       /* J = 90 */
(PID.TID 0000.0001)     ;
(PID.TID 0000.0001) dyF =  /* dyF(:,1,:,1) ( units: m ) */
(PID.TID 0000.0001)    90 @  3.805736759660797E+03              /* I =  1: 90 */
(PID.TID 0000.0001)     ;
(PID.TID 0000.0001) dyF =  /* dyF(1,:,1,:) ( units: m ) */
(PID.TID 0000.0001)                 3.805736759660797E+03,      /* J =  1 */
(PID.TID 0000.0001)                 3.804676488651810E+03,      /* J =  2 */
(PID.TID 0000.0001)                 3.803616217642822E+03,      /* J =  3 */
(PID.TID 0000.0001)      . . .
(PID.TID 0000.0001)                 3.783259014270256E+03,      /* J = 21 */
(PID.TID 0000.0001)                 3.781986689059471E+03,      /* J = 22 */
(PID.TID 0000.0001)                 3.780926418050483E+03,      /* J = 23 */
(PID.TID 0000.0001)                 3.779654092839698E+03,      /* J = 24 */
(PID.TID 0000.0001)                 3.778593821830710E+03,      /* J = 25 */
(PID.TID 0000.0001)                 3.777321496619924E+03,      /* J = 26 */
(PID.TID 0000.0001)      . . .
(PID.TID 0000.0001)                 3.757812510054549E+03,      /* J = 43 */
(PID.TID 0000.0001)                 3.756752239045562E+03,      /* J = 44 */
(PID.TID 0000.0001)                 3.755479913834776E+03,      /* J = 45 */
(PID.TID 0000.0001)                 3.754419642825788E+03,      /* J = 46 */
(PID.TID 0000.0001)                 3.753359371816800E+03,      /* J = 47 */
(PID.TID 0000.0001)                 3.752087046606015E+03,      /* J = 48 */
(PID.TID 0000.0001)      . . .
(PID.TID 0000.0001)                 3.732366005838842E+03,      /* J = 65 */
(PID.TID 0000.0001)                 3.731093680628057E+03,      /* J = 66 */
(PID.TID 0000.0001)                 3.729821355417271E+03,      /* J = 67 */
(PID.TID 0000.0001)                 3.728761084408283E+03,      /* J = 68 */
(PID.TID 0000.0001)                 3.727488759197498E+03,      /* J = 69 */
(PID.TID 0000.0001)                 3.726428488188511E+03,      /* J = 70 */
(PID.TID 0000.0001)      . . .
(PID.TID 0000.0001)                 3.705011013806957E+03,      /* J = 88 */
(PID.TID 0000.0001)                 3.703950742797969E+03,      /* J = 89 */
(PID.TID 0000.0001)                 3.702678417587184E+03       /* J = 90 */
(PID.TID 0000.0001)     ;
(PID.TID 0000.0001) dxG =  /* dxG(:,1,:,1) ( units: m ) */
(PID.TID 0000.0001)    90 @  4.140261721044909E+03              /* I =  1: 90 */
(PID.TID 0000.0001)     ;
(PID.TID 0000.0001) dxG =  /* dxG(1,:,1,:) ( units: m ) */
(PID.TID 0000.0001)                 4.140261721044909E+03,      /* J =  1 */
(PID.TID 0000.0001)                 4.139019598272403E+03,      /* J =  2 */
(PID.TID 0000.0001)                 4.137776344777035E+03,      /* J =  3 */
(PID.TID 0000.0001)      . . .
(PID.TID 0000.0001)                 4.115210445004191E+03,      /* J = 21 */
(PID.TID 0000.0001)                 4.113946455960185E+03,      /* J = 22 */
(PID.TID 0000.0001)                 4.112681441584010E+03,      /* J = 23 */
(PID.TID 0000.0001)                 4.111415332734301E+03,      /* J = 24 */
(PID.TID 0000.0001)                 4.110148202207719E+03,      /* J = 25 */
(PID.TID 0000.0001)                 4.108879980698939E+03,      /* J = 26 */
(PID.TID 0000.0001)      . . .
(PID.TID 0000.0001)                 4.087159622456270E+03,      /* J = 43 */
(PID.TID 0000.0001)                 4.085872633696104E+03,      /* J = 44 */
(PID.TID 0000.0001)                 4.084584586739682E+03,      /* J = 45 */
(PID.TID 0000.0001)                 4.083295556063611E+03,      /* J = 46 */
(PID.TID 0000.0001)                 4.082005470653015E+03,      /* J = 47 */
(PID.TID 0000.0001)                 4.080714332157602E+03,      /* J = 48 */
(PID.TID 0000.0001)      . . .
(PID.TID 0000.0001)                 4.058611770197446E+03,      /* J = 65 */
(PID.TID 0000.0001)                 4.057302634073451E+03,      /* J = 66 */
(PID.TID 0000.0001)                 4.055992552010050E+03,      /* J = 67 */
(PID.TID 0000.0001)                 4.054681525880490E+03,      /* J = 68 */
(PID.TID 0000.0001)                 4.053369482901857E+03,      /* J = 69 */
(PID.TID 0000.0001)                 4.052056499442881E+03,      /* J = 70 */
(PID.TID 0000.0001)      . . .
(PID.TID 0000.0001)                 4.028257935157928E+03,      /* J = 88 */
(PID.TID 0000.0001)                 4.026926820812773E+03,      /* J = 89 */
(PID.TID 0000.0001)                 4.025594725676684E+03       /* J = 90 */
(PID.TID 0000.0001)     ;
(PID.TID 0000.0001) dyG =  /* dyG(:,1,:,1) ( units: m ) */
(PID.TID 0000.0001)    90 @  3.805736759660797E+03              /* I =  1: 90 */
(PID.TID 0000.0001)     ;
(PID.TID 0000.0001) dyG =  /* dyG(1,:,1,:) ( units: m ) */
(PID.TID 0000.0001)                 3.805736759660797E+03,      /* J =  1 */
(PID.TID 0000.0001)                 3.804676488651810E+03,      /* J =  2 */
(PID.TID 0000.0001)                 3.803616217642822E+03,      /* J =  3 */
(PID.TID 0000.0001)      . . .
(PID.TID 0000.0001)                 3.783259014270256E+03,      /* J = 21 */
(PID.TID 0000.0001)                 3.781986689059471E+03,      /* J = 22 */
(PID.TID 0000.0001)                 3.780926418050483E+03,      /* J = 23 */
(PID.TID 0000.0001)                 3.779654092839698E+03,      /* J = 24 */
(PID.TID 0000.0001)                 3.778593821830710E+03,      /* J = 25 */
(PID.TID 0000.0001)                 3.777321496619924E+03,      /* J = 26 */
(PID.TID 0000.0001)      . . .
(PID.TID 0000.0001)                 3.757812510054549E+03,      /* J = 43 */
(PID.TID 0000.0001)                 3.756752239045562E+03,      /* J = 44 */
(PID.TID 0000.0001)                 3.755479913834776E+03,      /* J = 45 */
(PID.TID 0000.0001)                 3.754419642825788E+03,      /* J = 46 */
(PID.TID 0000.0001)                 3.753359371816800E+03,      /* J = 47 */
(PID.TID 0000.0001)                 3.752087046606015E+03,      /* J = 48 */
(PID.TID 0000.0001)      . . .
(PID.TID 0000.0001)                 3.732366005838842E+03,      /* J = 65 */
(PID.TID 0000.0001)                 3.731093680628057E+03,      /* J = 66 */
(PID.TID 0000.0001)                 3.729821355417271E+03,      /* J = 67 */
(PID.TID 0000.0001)                 3.728761084408283E+03,      /* J = 68 */
(PID.TID 0000.0001)                 3.727488759197498E+03,      /* J = 69 */
(PID.TID 0000.0001)                 3.726428488188511E+03,      /* J = 70 */
(PID.TID 0000.0001)      . . .
(PID.TID 0000.0001)                 3.705011013806957E+03,      /* J = 88 */
(PID.TID 0000.0001)                 3.703950742797969E+03,      /* J = 89 */
(PID.TID 0000.0001)                 3.702678417587184E+03       /* J = 90 */
(PID.TID 0000.0001)     ;
(PID.TID 0000.0001) dxC =  /* dxC(:,1,:,1) ( units: m ) */
(PID.TID 0000.0001)    90 @  4.139640844360528E+03              /* I =  1: 90 */
(PID.TID 0000.0001)     ;
(PID.TID 0000.0001) dxC =  /* dxC(1,:,1,:) ( units: m ) */
(PID.TID 0000.0001)                 4.139640844360528E+03,      /* J =  1 */
(PID.TID 0000.0001)                 4.138398156068276E+03,      /* J =  2 */
(PID.TID 0000.0001)                 4.137154337892096E+03,      /* J =  3 */
(PID.TID 0000.0001)      . . .
(PID.TID 0000.0001)                 4.114578631903650E+03,      /* J = 21 */
(PID.TID 0000.0001)                 4.113314130015837E+03,      /* J = 22 */
(PID.TID 0000.0001)                 4.112048568245555E+03,      /* J = 23 */
(PID.TID 0000.0001)                 4.110781948379812E+03,      /* J = 24 */
(PID.TID 0000.0001)                 4.109514272204890E+03,      /* J = 25 */
(PID.TID 0000.0001)                 4.108245541506343E+03,      /* J = 26 */
(PID.TID 0000.0001)      . . .
(PID.TID 0000.0001)                 4.086516305844601E+03,      /* J = 43 */
(PID.TID 0000.0001)                 4.085228787830029E+03,      /* J = 44 */
(PID.TID 0000.0001)                 4.083940248837513E+03,      /* J = 45 */
(PID.TID 0000.0001)                 4.082650690638008E+03,      /* J = 46 */
(PID.TID 0000.0001)                 4.081360078528878E+03,      /* J = 47 */
(PID.TID 0000.0001)                 4.080068450672382E+03,      /* J = 48 */
(PID.TID 0000.0001)      . . .
(PID.TID 0000.0001)                 4.057957376278871E+03,      /* J = 65 */
(PID.TID 0000.0001)                 4.056647767010304E+03,      /* J = 66 */
(PID.TID 0000.0001)                 4.055337212739030E+03,      /* J = 67 */
(PID.TID 0000.0001)                 4.054025678029965E+03,      /* J = 68 */
(PID.TID 0000.0001)                 4.052713164636506E+03,      /* J = 69 */
(PID.TID 0000.0001)                 4.051399674311273E+03,      /* J = 70 */
(PID.TID 0000.0001)      . . .
(PID.TID 0000.0001)                 4.027592548301442E+03,      /* J = 88 */
(PID.TID 0000.0001)                 4.026260943407077E+03,      /* J = 89 */
(PID.TID 0000.0001)                 4.024928396702262E+03       /* J = 90 */
(PID.TID 0000.0001)     ;
(PID.TID 0000.0001) dyC =  /* dyC(:,1,:,1) ( units: m ) */
(PID.TID 0000.0001)    90 @  3.465707847078411E+03              /* I =  1: 90 */
(PID.TID 0000.0001)     ;
(PID.TID 0000.0001) dyC =  /* dyC(1,:,1,:) ( units: m ) */
(PID.TID 0000.0001)                 3.465707847078411E+03,      /* J =  1 */
(PID.TID 0000.0001)                 3.805206624156303E+03,      /* J =  2 */
(PID.TID 0000.0001)                 3.804146353147316E+03,      /* J =  3 */
(PID.TID 0000.0001)      . . .
(PID.TID 0000.0001)                 3.783683122673851E+03,      /* J = 21 */
(PID.TID 0000.0001)                 3.782622851664863E+03,      /* J = 22 */
(PID.TID 0000.0001)                 3.781456553554977E+03,      /* J = 23 */
(PID.TID 0000.0001)                 3.780290255445090E+03,      /* J = 24 */
(PID.TID 0000.0001)                 3.779123957335204E+03,      /* J = 25 */
(PID.TID 0000.0001)                 3.777957659225317E+03,      /* J = 26 */
(PID.TID 0000.0001)      . . .
(PID.TID 0000.0001)                 3.758448672659942E+03,      /* J = 43 */
(PID.TID 0000.0001)                 3.757282374550055E+03,      /* J = 44 */
(PID.TID 0000.0001)                 3.756116076440168E+03,      /* J = 45 */
(PID.TID 0000.0001)                 3.754949778330282E+03,      /* J = 46 */
(PID.TID 0000.0001)                 3.753889507321294E+03,      /* J = 47 */
(PID.TID 0000.0001)                 3.752723209211408E+03,      /* J = 48 */
(PID.TID 0000.0001)      . . .
(PID.TID 0000.0001)                 3.732896141343336E+03,      /* J = 65 */
(PID.TID 0000.0001)                 3.731729843233449E+03,      /* J = 66 */
(PID.TID 0000.0001)                 3.730457518022664E+03,      /* J = 67 */
(PID.TID 0000.0001)                 3.729291219912777E+03,      /* J = 68 */
(PID.TID 0000.0001)                 3.728124921802891E+03,      /* J = 69 */
(PID.TID 0000.0001)                 3.726958623693004E+03,      /* J = 70 */
(PID.TID 0000.0001)      . . .
(PID.TID 0000.0001)                 3.705647176412349E+03,      /* J = 88 */
(PID.TID 0000.0001)                 3.704480878302463E+03,      /* J = 89 */
(PID.TID 0000.0001)                 3.703314580192576E+03       /* J = 90 */
(PID.TID 0000.0001)     ;
(PID.TID 0000.0001) dxV =  /* dxV(:,1,:,1) ( units: m ) */
(PID.TID 0000.0001)    90 @  4.140261721044909E+03              /* I =  1: 90 */
(PID.TID 0000.0001)     ;
(PID.TID 0000.0001) dxV =  /* dxV(1,:,1,:) ( units: m ) */
(PID.TID 0000.0001)                 4.140261721044909E+03,      /* J =  1 */
(PID.TID 0000.0001)                 4.139019598272403E+03,      /* J =  2 */
(PID.TID 0000.0001)                 4.137776344777035E+03,      /* J =  3 */
(PID.TID 0000.0001)      . . .
(PID.TID 0000.0001)                 4.115210445004191E+03,      /* J = 21 */
(PID.TID 0000.0001)                 4.113946455960185E+03,      /* J = 22 */
(PID.TID 0000.0001)                 4.112681441584010E+03,      /* J = 23 */
(PID.TID 0000.0001)                 4.111415332734301E+03,      /* J = 24 */
(PID.TID 0000.0001)                 4.110148202207719E+03,      /* J = 25 */
(PID.TID 0000.0001)                 4.108879980698939E+03,      /* J = 26 */
(PID.TID 0000.0001)      . . .
(PID.TID 0000.0001)                 4.087159622456270E+03,      /* J = 43 */
(PID.TID 0000.0001)                 4.085872633696104E+03,      /* J = 44 */
(PID.TID 0000.0001)                 4.084584586739682E+03,      /* J = 45 */
(PID.TID 0000.0001)                 4.083295556063611E+03,      /* J = 46 */
(PID.TID 0000.0001)                 4.082005470653015E+03,      /* J = 47 */
(PID.TID 0000.0001)                 4.080714332157602E+03,      /* J = 48 */
(PID.TID 0000.0001)      . . .
(PID.TID 0000.0001)                 4.058611770197446E+03,      /* J = 65 */
(PID.TID 0000.0001)                 4.057302634073451E+03,      /* J = 66 */
(PID.TID 0000.0001)                 4.055992552010050E+03,      /* J = 67 */
(PID.TID 0000.0001)                 4.054681525880490E+03,      /* J = 68 */
(PID.TID 0000.0001)                 4.053369482901857E+03,      /* J = 69 */
(PID.TID 0000.0001)                 4.052056499442881E+03,      /* J = 70 */
(PID.TID 0000.0001)      . . .
(PID.TID 0000.0001)                 4.028257935157928E+03,      /* J = 88 */
(PID.TID 0000.0001)                 4.026926820812773E+03,      /* J = 89 */
(PID.TID 0000.0001)                 4.025594725676684E+03       /* J = 90 */
(PID.TID 0000.0001)     ;
(PID.TID 0000.0001) dyU =  /* dyU(:,1,:,1) ( units: m ) */
(PID.TID 0000.0001)    90 @  3.465707847078411E+03              /* I =  1: 90 */
(PID.TID 0000.0001)     ;
(PID.TID 0000.0001) dyU =  /* dyU(1,:,1,:) ( units: m ) */
(PID.TID 0000.0001)                 3.465707847078411E+03,      /* J =  1 */
(PID.TID 0000.0001)                 3.805206624156303E+03,      /* J =  2 */
(PID.TID 0000.0001)                 3.804146353147316E+03,      /* J =  3 */
(PID.TID 0000.0001)      . . .
(PID.TID 0000.0001)                 3.783683122673851E+03,      /* J = 21 */
(PID.TID 0000.0001)                 3.782622851664863E+03,      /* J = 22 */
(PID.TID 0000.0001)                 3.781456553554977E+03,      /* J = 23 */
(PID.TID 0000.0001)                 3.780290255445090E+03,      /* J = 24 */
(PID.TID 0000.0001)                 3.779123957335204E+03,      /* J = 25 */
(PID.TID 0000.0001)                 3.777957659225317E+03,      /* J = 26 */
(PID.TID 0000.0001)      . . .
(PID.TID 0000.0001)                 3.758448672659942E+03,      /* J = 43 */
(PID.TID 0000.0001)                 3.757282374550055E+03,      /* J = 44 */
(PID.TID 0000.0001)                 3.756116076440168E+03,      /* J = 45 */
(PID.TID 0000.0001)                 3.754949778330282E+03,      /* J = 46 */
(PID.TID 0000.0001)                 3.753889507321294E+03,      /* J = 47 */
(PID.TID 0000.0001)                 3.752723209211408E+03,      /* J = 48 */
(PID.TID 0000.0001)      . . .
(PID.TID 0000.0001)                 3.732896141343336E+03,      /* J = 65 */
(PID.TID 0000.0001)                 3.731729843233449E+03,      /* J = 66 */
(PID.TID 0000.0001)                 3.730457518022664E+03,      /* J = 67 */
(PID.TID 0000.0001)                 3.729291219912777E+03,      /* J = 68 */
(PID.TID 0000.0001)                 3.728124921802891E+03,      /* J = 69 */
(PID.TID 0000.0001)                 3.726958623693004E+03,      /* J = 70 */
(PID.TID 0000.0001)      . . .
(PID.TID 0000.0001)                 3.705647176412349E+03,      /* J = 88 */
(PID.TID 0000.0001)                 3.704480878302463E+03,      /* J = 89 */
(PID.TID 0000.0001)                 3.703314580192576E+03       /* J = 90 */
(PID.TID 0000.0001)     ;
(PID.TID 0000.0001) rA  =  /* rA (:,1,:,1) ( units: m^2 ) */
(PID.TID 0000.0001)    90 @  1.575438309886870E+07              /* I =  1: 90 */
(PID.TID 0000.0001)     ;
(PID.TID 0000.0001) rA  =  /* rA (1,:,1,:) ( units: m^2 ) */
(PID.TID 0000.0001)                 1.575438309886870E+07,      /* J =  1 */
(PID.TID 0000.0001)                 1.574526593103012E+07,      /* J =  2 */
(PID.TID 0000.0001)                 1.573614710072067E+07,      /* J =  3 */
(PID.TID 0000.0001)      . . .
(PID.TID 0000.0001)                 1.556651647028628E+07,      /* J = 21 */
(PID.TID 0000.0001)                 1.555649905915226E+07,      /* J = 22 */
(PID.TID 0000.0001)                 1.554735283576100E+07,      /* J = 23 */
(PID.TID 0000.0001)                 1.553733358804201E+07,      /* J = 24 */
(PID.TID 0000.0001)                 1.552818501201680E+07,      /* J = 25 */
(PID.TID 0000.0001)                 1.551816396996124E+07,      /* J = 26 */
(PID.TID 0000.0001)      . . .
(PID.TID 0000.0001)                 1.535636187397145E+07,      /* J = 43 */
(PID.TID 0000.0001)                 1.534719217327880E+07,      /* J = 44 */
(PID.TID 0000.0001)                 1.533715535169233E+07,      /* J = 45 */
(PID.TID 0000.0001)                 1.532798372586704E+07,      /* J = 46 */
(PID.TID 0000.0001)                 1.531881087890220E+07,      /* J = 47 */
(PID.TID 0000.0001)                 1.530877176172662E+07,      /* J = 48 */
(PID.TID 0000.0001)      . . .
(PID.TID 0000.0001)                 1.514578194771098E+07,      /* J = 65 */
(PID.TID 0000.0001)                 1.513573263166044E+07,      /* J = 66 */
(PID.TID 0000.0001)                 1.512568312341997E+07,      /* J = 67 */
(PID.TID 0000.0001)                 1.511649296761149E+07,      /* J = 68 */
(PID.TID 0000.0001)                 1.510644254990678E+07,      /* J = 69 */
(PID.TID 0000.0001)                 1.509725094811608E+07,      /* J = 70 */
(PID.TID 0000.0001)      . . .
(PID.TID 0000.0001)                 1.492227454024103E+07,      /* J = 88 */
(PID.TID 0000.0001)                 1.491307200194015E+07,      /* J = 89 */
(PID.TID 0000.0001)                 1.490301529699830E+07       /* J = 90 */
(PID.TID 0000.0001)     ;
(PID.TID 0000.0001) rAw =  /* rAw(:,1,:,1) ( units: m^2 ) */
(PID.TID 0000.0001)    90 @  1.575438309886870E+07              /* I =  1: 90 */
(PID.TID 0000.0001)     ;
(PID.TID 0000.0001) rAw =  /* rAw(1,:,1,:) ( units: m^2 ) */
(PID.TID 0000.0001)                 1.575438309886870E+07,      /* J =  1 */
(PID.TID 0000.0001)                 1.574526593103012E+07,      /* J =  2 */
(PID.TID 0000.0001)                 1.573614710072067E+07,      /* J =  3 */
(PID.TID 0000.0001)      . . .
(PID.TID 0000.0001)                 1.556651647028628E+07,      /* J = 21 */
(PID.TID 0000.0001)                 1.555649905915226E+07,      /* J = 22 */
(PID.TID 0000.0001)                 1.554735283576100E+07,      /* J = 23 */
(PID.TID 0000.0001)                 1.553733358804201E+07,      /* J = 24 */
(PID.TID 0000.0001)                 1.552818501201680E+07,      /* J = 25 */
(PID.TID 0000.0001)                 1.551816396996124E+07,      /* J = 26 */
(PID.TID 0000.0001)      . . .
(PID.TID 0000.0001)                 1.535636187397145E+07,      /* J = 43 */
(PID.TID 0000.0001)                 1.534719217327880E+07,      /* J = 44 */
(PID.TID 0000.0001)                 1.533715535169233E+07,      /* J = 45 */
(PID.TID 0000.0001)                 1.532798372586704E+07,      /* J = 46 */
(PID.TID 0000.0001)                 1.531881087890220E+07,      /* J = 47 */
(PID.TID 0000.0001)                 1.530877176172662E+07,      /* J = 48 */
(PID.TID 0000.0001)      . . .
(PID.TID 0000.0001)                 1.514578194771098E+07,      /* J = 65 */
(PID.TID 0000.0001)                 1.513573263166044E+07,      /* J = 66 */
(PID.TID 0000.0001)                 1.512568312341997E+07,      /* J = 67 */
(PID.TID 0000.0001)                 1.511649296761149E+07,      /* J = 68 */
(PID.TID 0000.0001)                 1.510644254990678E+07,      /* J = 69 */
(PID.TID 0000.0001)                 1.509725094811608E+07,      /* J = 70 */
(PID.TID 0000.0001)      . . .
(PID.TID 0000.0001)                 1.492227454024103E+07,      /* J = 88 */
(PID.TID 0000.0001)                 1.491307200194015E+07,      /* J = 89 */
(PID.TID 0000.0001)                 1.490301529699830E+07       /* J = 90 */
(PID.TID 0000.0001)     ;
(PID.TID 0000.0001) rAs =  /* rAs(:,1,:,1) ( units: m^2 ) */
(PID.TID 0000.0001)    90 @  1.434874515713397E+07              /* I =  1: 90 */
(PID.TID 0000.0001)     ;
(PID.TID 0000.0001) rAs =  /* rAs(1,:,1,:) ( units: m^2 ) */
(PID.TID 0000.0001)                 1.434874515713397E+07,      /* J =  1 */
(PID.TID 0000.0001)                 1.574982488807916E+07,      /* J =  2 */
(PID.TID 0000.0001)                 1.574070688790848E+07,      /* J =  3 */
(PID.TID 0000.0001)      . . .
(PID.TID 0000.0001)                 1.557065234602267E+07,      /* J = 21 */
(PID.TID 0000.0001)                 1.556150804841762E+07,      /* J = 22 */
(PID.TID 0000.0001)                 1.555192629706736E+07,      /* J = 23 */
(PID.TID 0000.0001)                 1.554234349323534E+07,      /* J = 24 */
(PID.TID 0000.0001)                 1.553275964738865E+07,      /* J = 25 */
(PID.TID 0000.0001)                 1.552317476996653E+07,      /* J = 26 */
(PID.TID 0000.0001)      . . .
(PID.TID 0000.0001)                 1.536137984435806E+07,      /* J = 43 */
(PID.TID 0000.0001)                 1.535177734997811E+07,      /* J = 44 */
(PID.TID 0000.0001)                 1.534217401942485E+07,      /* J = 45 */
(PID.TID 0000.0001)                 1.533256986292950E+07,      /* J = 46 */
(PID.TID 0000.0001)                 1.532339762548036E+07,      /* J = 47 */
(PID.TID 0000.0001)                 1.531379157383674E+07,      /* J = 48 */
(PID.TID 0000.0001)      . . .
(PID.TID 0000.0001)                 1.515037634627304E+07,      /* J = 65 */
(PID.TID 0000.0001)                 1.514075752265306E+07,      /* J = 66 */
(PID.TID 0000.0001)                 1.513070810933390E+07,      /* J = 67 */
(PID.TID 0000.0001)                 1.512108834570999E+07,      /* J = 68 */
(PID.TID 0000.0001)                 1.511146798829233E+07,      /* J = 69 */
(PID.TID 0000.0001)                 1.510184704705331E+07,      /* J = 70 */
(PID.TID 0000.0001)      . . .
(PID.TID 0000.0001)                 1.492730285605174E+07,      /* J = 88 */
(PID.TID 0000.0001)                 1.491767354877487E+07,      /* J = 89 */
(PID.TID 0000.0001)                 1.490804385545228E+07       /* J = 90 */
(PID.TID 0000.0001)     ;
(PID.TID 0000.0001) globalArea = /* Integrated horizontal Area (m^2) */
(PID.TID 0000.0001)                 1.130146430983181E+13
(PID.TID 0000.0001)     ;
(PID.TID 0000.0001) // =======================================================
(PID.TID 0000.0001) // End of Model config. summary
(PID.TID 0000.0001) // =======================================================
(PID.TID 0000.0001) 
(PID.TID 0000.0001) == Packages configuration : Check & print summary ==
(PID.TID 0000.0001) 
(PID.TID 0000.0001) OBCS_CHECK: #define ALLOW_OBCS
(PID.TID 0000.0001) OBCS_CHECK: start summary:
(PID.TID 0000.0001) useOBCSprescribe = /* prescribe OB values */
(PID.TID 0000.0001)                   T
(PID.TID 0000.0001)     ;
(PID.TID 0000.0001) useOBCSbalance = /* balance the flow through OB */
(PID.TID 0000.0001)                   T
(PID.TID 0000.0001)     ;
(PID.TID 0000.0001) OBCS_balanceFacN = /* Northern OB Factor for balancing OB flow [-] */
(PID.TID 0000.0001)                -1.000000000000000E+00
(PID.TID 0000.0001)     ;
(PID.TID 0000.0001) OBCS_balanceFacS = /* Southern OB Factor for balancing OB flow [-] */
(PID.TID 0000.0001)                -1.000000000000000E+00
(PID.TID 0000.0001)     ;
(PID.TID 0000.0001) OBCS_balanceFacE = /* Eastern  OB Factor for balancing OB flow [-] */
(PID.TID 0000.0001)                 1.000000000000000E+00
(PID.TID 0000.0001)     ;
(PID.TID 0000.0001) OBCS_balanceFacW = /* Western  OB Factor for balancing OB flow [-] */
(PID.TID 0000.0001)                 1.000000000000000E+00
(PID.TID 0000.0001)     ;
(PID.TID 0000.0001) OBCS_uvApplyFac = /* Factor to apply to U,V 2nd column/row */
(PID.TID 0000.0001)                 1.000000000000000E+00
(PID.TID 0000.0001)     ;
(PID.TID 0000.0001) OBCS_u1_adv_T = /* Temp uses upwind adv-scheme @ OB */
(PID.TID 0000.0001)                       1
(PID.TID 0000.0001)     ;
(PID.TID 0000.0001) OBCS_u1_adv_S = /* Salt uses upwind adv-scheme @ OB */
(PID.TID 0000.0001)                       1
(PID.TID 0000.0001)     ;
(PID.TID 0000.0001) OBCS_monitorFreq = /* monitor output frequency [s] */
(PID.TID 0000.0001)                 2.400000000000000E+02
(PID.TID 0000.0001)     ;
(PID.TID 0000.0001) OBCS_monSelect = /* select group of variables to monitor */
(PID.TID 0000.0001)                       3
(PID.TID 0000.0001)     ;
(PID.TID 0000.0001) useOBCStides = /* apply tidal forcing through OB */
(PID.TID 0000.0001)                   T
(PID.TID 0000.0001)     ;
(PID.TID 0000.0001) tidalPeriod = /* (s) */
(PID.TID 0000.0001)                 4.471416500000000E+04,      /* I =  1 */
(PID.TID 0000.0001)                 4.320000100000000E+04,      /* I =  2 */
(PID.TID 0000.0001)                 4.557005400000000E+04,      /* I =  3 */
(PID.TID 0000.0001)                 4.308205000000000E+04,      /* I =  4 */
(PID.TID 0000.0001)                 8.616407700000000E+04,      /* I =  5 */
(PID.TID 0000.0001)                 9.294963600000000E+04,      /* I =  6 */
(PID.TID 0000.0001)                 8.663720000000000E+04,      /* I =  7 */
(PID.TID 0000.0001)                 9.672608600000000E+04,      /* I =  8 */
(PID.TID 0000.0001)                 1.180295546000000E+06,      /* I =  9 */
(PID.TID 0000.0001)                 2.380715864000000E+06,      /* I = 10 */
(PID.TID 0000.0001)                 2.235709100000000E+04,      /* I = 11 */
(PID.TID 0000.0001)                 2.197202200000000E+04,      /* I = 12 */
(PID.TID 0000.0001)                 2.256904200000000E+04       /* I = 13 */
(PID.TID 0000.0001)     ;
(PID.TID 0000.0001) OB_indexNone = /* null value for OB index (i.e. no OB) */
(PID.TID 0000.0001)                     -99
(PID.TID 0000.0001)     ;
(PID.TID 0000.0001) ======== Tile bi=   1 , bj=   1 ========
(PID.TID 0000.0001)  OB_Jn = /* Northern OB local indices */
(PID.TID 0000.0001)    98 @      -99                            /* I = -3: 94 */
(PID.TID 0000.0001)  OB_Js = /* Southern OB local indices */
(PID.TID 0000.0001)     4 @      -99,                           /* I = -3:  0 */
(PID.TID 0000.0001)    94 @        8                            /* I =  1: 94 */
(PID.TID 0000.0001)  OB_Ie = /* Eastern OB local indices */
(PID.TID 0000.0001)    98 @      -99                            /* J = -3: 94 */
(PID.TID 0000.0001)  OB_Iw = /* Western OB local indices */
(PID.TID 0000.0001)    98 @      -99                            /* J = -3: 94 */
(PID.TID 0000.0001) OBCS_CHECK: end summary.
(PID.TID 0000.0001) OBCS_CHECK: set-up OK
(PID.TID 0000.0001) OBCS_CHECK: check Inside Mask and OB locations: OK
(PID.TID 0000.0001) KPP_CHECK: #define ALLOW_KPP
(PID.TID 0000.0001)  kpp_freq = /* frequency of KPP calculation */
(PID.TID 0000.0001)                 2.400000000000000E+02
(PID.TID 0000.0001)     ;
(PID.TID 0000.0001) KPP_ghatUseTotalDiffus= /* non-local term fct of total diffus */
(PID.TID 0000.0001)                   F
(PID.TID 0000.0001)     ;
(PID.TID 0000.0001) KPPuseDoubleDiff = /* include double diffusive contrib */
(PID.TID 0000.0001)                   F
(PID.TID 0000.0001)     ;
(PID.TID 0000.0001) LimitHblStable = /* limits depth of hbl if stable cond.*/
(PID.TID 0000.0001)                   T
(PID.TID 0000.0001)     ;
(PID.TID 0000.0001)  minKPPhbl = /* minimum KPPhbl value [m] */
(PID.TID 0000.0001)                 2.500000000000000E+00
(PID.TID 0000.0001)     ;
(PID.TID 0000.0001)  epsln     = /* constant [-] */
(PID.TID 0000.0001)                 9.999999999999999E-21
(PID.TID 0000.0001)     ;
(PID.TID 0000.0001)  phepsi    = /* constant [-] */
(PID.TID 0000.0001)                 1.000000000000000E-10
(PID.TID 0000.0001)     ;
(PID.TID 0000.0001)  epsilon   = /* constant [-] */
(PID.TID 0000.0001)                 1.000000000000000E-01
(PID.TID 0000.0001)     ;
(PID.TID 0000.0001)  vonk      = /* Von Karmans constant [-] */
(PID.TID 0000.0001)                 4.000000000000000E-01
(PID.TID 0000.0001)     ;
(PID.TID 0000.0001)  dB_dz     = /* maximum N^2 in mixed layer [s^-2] */
(PID.TID 0000.0001)                 5.200000000000000E-05
(PID.TID 0000.0001)     ;
(PID.TID 0000.0001)  conc1     = /* scalar constant [-] */
(PID.TID 0000.0001)                 5.000000000000000E+00
(PID.TID 0000.0001)     ;
(PID.TID 0000.0001)  conam     = /* scalar constant [-] */
(PID.TID 0000.0001)                 1.257000000000000E+00
(PID.TID 0000.0001)     ;
(PID.TID 0000.0001)  concm     = /* scalar constant [-] */
(PID.TID 0000.0001)                 8.380000000000001E+00
(PID.TID 0000.0001)     ;
(PID.TID 0000.0001)  conc2     = /* scalar constant [-] */
(PID.TID 0000.0001)                 1.600000000000000E+01
(PID.TID 0000.0001)     ;
(PID.TID 0000.0001)  conas     = /* scalar constant [-] */
(PID.TID 0000.0001)                -2.886000000000000E+01
(PID.TID 0000.0001)     ;
(PID.TID 0000.0001)  concs     = /* scalar constant [-] */
(PID.TID 0000.0001)                 9.895999999999999E+01
(PID.TID 0000.0001)     ;
(PID.TID 0000.0001)  conc3     = /* scalar constant [-] */
(PID.TID 0000.0001)                 1.600000000000000E+01
(PID.TID 0000.0001)     ;
(PID.TID 0000.0001)  zetam     = /* scalar constant [-] */
(PID.TID 0000.0001)                -2.000000000000000E-01
(PID.TID 0000.0001)     ;
(PID.TID 0000.0001)  zetas     = /* scalar constant [-] */
(PID.TID 0000.0001)                -1.000000000000000E+00
(PID.TID 0000.0001)     ;
(PID.TID 0000.0001)  Ricr      = /* critical bulk Richardson Number [-] */
(PID.TID 0000.0001)                 3.000000000000000E-01
(PID.TID 0000.0001)     ;
(PID.TID 0000.0001)  cekman    = /* coeff for Ekman depth [-] */
(PID.TID 0000.0001)                 7.000000000000000E-01
(PID.TID 0000.0001)     ;
(PID.TID 0000.0001)  cmonob    = /* coeff for Monin-Obukhov depth [-] */
(PID.TID 0000.0001)                 1.000000000000000E+00
(PID.TID 0000.0001)     ;
(PID.TID 0000.0001)  concv     = /* buoyancy freq ratio [-] */
(PID.TID 0000.0001)                 1.800000000000000E+00
(PID.TID 0000.0001)     ;
(PID.TID 0000.0001)  hbf       = /* solar radiation depth ratio [-] */
(PID.TID 0000.0001)                 1.000000000000000E+00
(PID.TID 0000.0001)     ;
(PID.TID 0000.0001)  zmin      = /* minimum for zehat in table [m3/s3] */
(PID.TID 0000.0001)                -4.000000000000000E-07
(PID.TID 0000.0001)     ;
(PID.TID 0000.0001)  zmax      = /* maximum for zehat in table [m3/s3] */
(PID.TID 0000.0001)                 0.000000000000000E+00
(PID.TID 0000.0001)     ;
(PID.TID 0000.0001)  umin      = /* minimum for ustar in table [m/s] */
(PID.TID 0000.0001)                 0.000000000000000E+00
(PID.TID 0000.0001)     ;
(PID.TID 0000.0001)  umax      = /* maximum for ustar in table [m/s] */
(PID.TID 0000.0001)                 4.000000000000000E-02
(PID.TID 0000.0001)     ;
(PID.TID 0000.0001) num_v_smooth_Ri = /* number of vertical smoothing */
(PID.TID 0000.0001)                       0
(PID.TID 0000.0001)     ;
(PID.TID 0000.0001)  Riinfty   = /* shear instability Ri number limit [-] */
(PID.TID 0000.0001)                 7.000000000000000E-01
(PID.TID 0000.0001)     ;
(PID.TID 0000.0001)  BVSQcon   = /* Brunt-Vaisala squared (=N^2) [s^-2] */
(PID.TID 0000.0001)                -2.000000000000000E-05
(PID.TID 0000.0001)     ;
(PID.TID 0000.0001)  difm0     = /* max viscosity from shear instab. [m2/s] */
(PID.TID 0000.0001)                 5.000000000000000E-03
(PID.TID 0000.0001)     ;
(PID.TID 0000.0001)  difs0     = /* max diffusiv. from shear instab. [m2/s] */
(PID.TID 0000.0001)                 5.000000000000000E-03
(PID.TID 0000.0001)     ;
(PID.TID 0000.0001)  dift0     = /* max diffusiv. from shear instab. [m2/s] */
(PID.TID 0000.0001)                 5.000000000000000E-03
(PID.TID 0000.0001)     ;
(PID.TID 0000.0001)  difmcon   = /* convective viscosity [m2/s] */
(PID.TID 0000.0001)                 1.000000000000000E-01
(PID.TID 0000.0001)     ;
(PID.TID 0000.0001)  difscon   = /* convective diffusiv. [m2/s] */
(PID.TID 0000.0001)                 1.000000000000000E-01
(PID.TID 0000.0001)     ;
(PID.TID 0000.0001)  diftcon   = /* convective diffusiv. [m2/s] */
(PID.TID 0000.0001)                 1.000000000000000E-01
(PID.TID 0000.0001)     ;
(PID.TID 0000.0001)  Rrho0     = /* double diffusion density ratio [-] */
(PID.TID 0000.0001)                 1.900000000000000E+00
(PID.TID 0000.0001)     ;
(PID.TID 0000.0001)  dsfmax    = /* max diffusiv. for salt fingering [m2/s] */
(PID.TID 0000.0001)                 1.000000000000000E-02
(PID.TID 0000.0001)     ;
(PID.TID 0000.0001)  cstar     = /* coeff for non-locak transport [-] */
(PID.TID 0000.0001)                 1.000000000000000E+01
(PID.TID 0000.0001)     ;
(PID.TID 0000.0001) KPPwriteState = /* write KPP fields to file */
(PID.TID 0000.0001)                   F
(PID.TID 0000.0001)     ;
(PID.TID 0000.0001)  kpp_dumpFreq = /* dump freq of KPP output */
(PID.TID 0000.0001)                 0.000000000000000E+00
(PID.TID 0000.0001)     ;
(PID.TID 0000.0001)  kpp_taveFreq = /* time-averaging freq of KPP output */
(PID.TID 0000.0001)                 0.000000000000000E+00
(PID.TID 0000.0001)     ;
(PID.TID 0000.0001) 
(PID.TID 0000.0001) EXF_CHECK: #define ALLOW_EXF
(PID.TID 0000.0001) GAD_CHECK: #define ALLOW_GENERIC_ADVDIFF
(PID.TID 0000.0001) // =======================================================
(PID.TID 0000.0001) // Check Model config. (CONFIG_CHECK):
(PID.TID 0000.0001) // CONFIG_CHECK : Normal End
(PID.TID 0000.0001) // =======================================================
(PID.TID 0000.0001) 
(PID.TID 0000.0001)  MDS_READ_FIELD: opening global file: U0_2160x540x100.bin
(PID.TID 0000.0001)  MDS_READ_FIELD: opening global file: V0_2160x540x100.bin
(PID.TID 0000.0001)  MDS_READ_FIELD: opening global file: T0_2160x540x100.bin
(PID.TID 0000.0001)  MDS_READ_FIELD: opening global file: S0_2160x540x100.bin
(PID.TID 0000.0001) Start initial hydrostatic pressure computation
(PID.TID 0000.0001) Pressure is predetermined for buoyancyRelation OCEANIC
(PID.TID 0000.0001) 
(PID.TID 0000.0001)  write diagnostics summary to file ioUnit:      6
Iter.Nb:         0 ; Time(s):  0.0000000000000E+00
------------------------------------------------------------------------
2D/3D diagnostics: Number of lists:     2
------------------------------------------------------------------------
listId=    1 ; file name: diags/surface
 nFlds, nActive,       freq     &     phase        , nLev               
    5  |    5  |      3600.000000         0.000000 |   1
 levels:   1
 diag# | name   |   ipt  |  iMate | kLev|   count |   mate.C|           
    23 |ETAN    |      1 |      0 |   1 |       0 |
    80 |oceTAUX |      2 |      3 |   1 |       0 |       0 |
    81 |oceTAUY |      3 |      2 |   1 |       0 |       0 |
   185 |EXFuwind|      4 |      0 |   1 |       0 |
   186 |EXFvwind|      5 |      0 |   1 |       0 |
------------------------------------------------------------------------
listId=    2 ; file name: diags/interior
 nFlds, nActive,       freq     &     phase        , nLev               
    5  |    5  |      3600.000000         0.000000 | 100
 levels:   1   2   3   4   5   6   7   8   9  10  11  12  13  14  15  16  17  18  19  20  21  22  23  24  25
 levels:  26  27  28  29  30  31  32  33  34  35  36  37  38  39  40  41  42  43  44  45  46  47  48  49  50
 levels:  51  52  53  54  55  56  57  58  59  60  61  62  63  64  65  66  67  68  69  70  71  72  73  74  75
 levels:  76  77  78  79  80  81  82  83  84  85  86  87  88  89  90  91  92  93  94  95  96  97  98  99 100
 diag# | name   |   ipt  |  iMate | kLev|   count |   mate.C|           
    26 |THETA   |      6 |      0 | 100 |       0 |
    27 |SALT    |    106 |      0 | 100 |       0 |
    30 |UVEL    |    206 |    306 | 100 |       0 |       0 |
    31 |VVEL    |    306 |    206 | 100 |       0 |       0 |
    32 |WVEL    |    406 |      0 | 100 |       0 |
------------------------------------------------------------------------
Global & Regional Statistics diagnostics: Number of lists:     0
------------------------------------------------------------------------
(PID.TID 0000.0001)  MDS_READ_SEC_XZ: opening global file: OBNam_2160x13.bin
(PID.TID 0000.0001)  MDS_READ_SEC_XZ: opening global file: OBNph_2160x13.bin
(PID.TID 0000.0001)  MDS_READ_SEC_XZ: opening global file: OBSam_2160x13.bin
(PID.TID 0000.0001)  MDS_READ_SEC_XZ: opening global file: OBSph_2160x13.bin
(PID.TID 0000.0001)  MDS_READ_SEC_XZ: opening global file: OBNu_2160x100x26.bin
(PID.TID 0000.0001)  MDS_READ_SEC_XZ: opening global file: OBNu_2160x100x26.bin
(PID.TID 0000.0001)  MDS_READ_SEC_XZ: opening global file: OBNv_2160x100x26.bin
(PID.TID 0000.0001)  MDS_READ_SEC_XZ: opening global file: OBNv_2160x100x26.bin
(PID.TID 0000.0001)  MDS_READ_SEC_XZ: opening global file: OBNt_2160x100x26.bin
(PID.TID 0000.0001)  MDS_READ_SEC_XZ: opening global file: OBNt_2160x100x26.bin
(PID.TID 0000.0001)  MDS_READ_SEC_XZ: opening global file: OBNs_2160x100x26.bin
(PID.TID 0000.0001)  MDS_READ_SEC_XZ: opening global file: OBNs_2160x100x26.bin
(PID.TID 0000.0001)  MDS_READ_SEC_XZ: opening global file: OBSu_2160x100x26.bin
(PID.TID 0000.0001)  MDS_READ_SEC_XZ: opening global file: OBSu_2160x100x26.bin
(PID.TID 0000.0001)  MDS_READ_SEC_XZ: opening global file: OBSv_2160x100x26.bin
(PID.TID 0000.0001)  MDS_READ_SEC_XZ: opening global file: OBSv_2160x100x26.bin
(PID.TID 0000.0001)  MDS_READ_SEC_XZ: opening global file: OBSt_2160x100x26.bin
(PID.TID 0000.0001)  MDS_READ_SEC_XZ: opening global file: OBSt_2160x100x26.bin
(PID.TID 0000.0001)  MDS_READ_SEC_XZ: opening global file: OBSs_2160x100x26.bin
(PID.TID 0000.0001)  MDS_READ_SEC_XZ: opening global file: OBSs_2160x100x26.bin
(PID.TID 0000.0001) // =======================================================
(PID.TID 0000.0001) // Model current state
(PID.TID 0000.0001) // =======================================================
(PID.TID 0000.0001) 
(PID.TID 0000.0001) // =======================================================
(PID.TID 0000.0001) // Begin MONITOR dynamic field statistics
(PID.TID 0000.0001) // =======================================================
(PID.TID 0000.0001) %MON time_tsnumber                =                     0
(PID.TID 0000.0001) %MON time_secondsf                =   0.0000000000000E+00
(PID.TID 0000.0001) %MON dynstat_eta_max              =   0.0000000000000E+00
(PID.TID 0000.0001) %MON dynstat_eta_min              =   0.0000000000000E+00
(PID.TID 0000.0001) %MON dynstat_eta_mean             =   0.0000000000000E+00
(PID.TID 0000.0001) %MON dynstat_eta_sd               =   0.0000000000000E+00
(PID.TID 0000.0001) %MON dynstat_eta_del2             =   0.0000000000000E+00
(PID.TID 0000.0001) %MON dynstat_uvel_max             =   1.2655940055847E+00
(PID.TID 0000.0001) %MON dynstat_uvel_min             =  -6.7179697751999E-01
(PID.TID 0000.0001) %MON dynstat_uvel_mean            =   3.8933782453988E-03
(PID.TID 0000.0001) %MON dynstat_uvel_sd              =   5.2086469330268E-02
(PID.TID 0000.0001) %MON dynstat_uvel_del2            =   3.0019794494422E-07
(PID.TID 0000.0001) %MON dynstat_vvel_max             =   1.8766679377822E+00
(PID.TID 0000.0001) %MON dynstat_vvel_min             =  -8.8630950450897E-01
(PID.TID 0000.0001) %MON dynstat_vvel_mean            =  -1.8315008085781E-04
(PID.TID 0000.0001) %MON dynstat_vvel_sd              =   4.8401112616991E-02
(PID.TID 0000.0001) %MON dynstat_vvel_del2            =   3.9531900049683E-07
(PID.TID 0000.0001) %MON dynstat_wvel_max             =   8.0878572016153E-02
(PID.TID 0000.0001) %MON dynstat_wvel_min             =  -1.0644865410817E-01
(PID.TID 0000.0001) %MON dynstat_wvel_mean            =  -1.8564800099859E-06
(PID.TID 0000.0001) %MON dynstat_wvel_sd              =   1.3360682389456E-03
(PID.TID 0000.0001) %MON dynstat_wvel_del2            =   3.7531921664199E-07
(PID.TID 0000.0001) %MON dynstat_theta_max            =   2.6144617080688E+01
(PID.TID 0000.0001) %MON dynstat_theta_min            =   1.4688636064529E+00
(PID.TID 0000.0001) %MON dynstat_theta_mean           =   5.5098811020494E+00
(PID.TID 0000.0001) %MON dynstat_theta_sd             =   4.7735348546542E+00
(PID.TID 0000.0001) %MON dynstat_theta_del2           =   4.0189244228695E-06
(PID.TID 0000.0001) %MON dynstat_salt_max             =   3.9185241699219E+01
(PID.TID 0000.0001) %MON dynstat_salt_min             =   3.3089591979980E+01
(PID.TID 0000.0001) %MON dynstat_salt_mean            =   3.5173374558496E+01
(PID.TID 0000.0001) %MON dynstat_salt_sd              =   3.7891790794924E-01
(PID.TID 0000.0001) %MON dynstat_salt_del2            =   4.9655867703385E-07
(PID.TID 0000.0001) %MON dynstat_sst_max              =   2.6144517898560E+01
(PID.TID 0000.0001) %MON dynstat_sst_min              =   4.0907053947449E+00
(PID.TID 0000.0001) %MON dynstat_sst_mean             =   1.9650344179206E+01
(PID.TID 0000.0001) %MON dynstat_sst_sd               =   3.6388127143234E+00
(PID.TID 0000.0001) %MON dynstat_sst_del2             =   1.9236263370514E-05
(PID.TID 0000.0001) %MON dynstat_sss_max              =   3.7335128784180E+01
(PID.TID 0000.0001) %MON dynstat_sss_min              =   3.3089591979980E+01
(PID.TID 0000.0001) %MON dynstat_sss_mean             =   3.5867950426451E+01
(PID.TID 0000.0001) %MON dynstat_sss_sd               =   4.8717343265566E-01
(PID.TID 0000.0001) %MON dynstat_sss_del2             =   5.0430181870384E-06
(PID.TID 0000.0001) %MON forcing_qnet_max             =   0.0000000000000E+00
(PID.TID 0000.0001) %MON forcing_qnet_min             =   0.0000000000000E+00
(PID.TID 0000.0001) %MON forcing_qnet_mean            =   0.0000000000000E+00
(PID.TID 0000.0001) %MON forcing_qnet_sd              =   0.0000000000000E+00
(PID.TID 0000.0001) %MON forcing_qnet_del2            =   0.0000000000000E+00
(PID.TID 0000.0001) %MON forcing_qsw_max              =   0.0000000000000E+00
(PID.TID 0000.0001) %MON forcing_qsw_min              =   0.0000000000000E+00
(PID.TID 0000.0001) %MON forcing_qsw_mean             =   0.0000000000000E+00
(PID.TID 0000.0001) %MON forcing_qsw_sd               =   0.0000000000000E+00
(PID.TID 0000.0001) %MON forcing_qsw_del2             =   0.0000000000000E+00
(PID.TID 0000.0001) %MON forcing_empmr_max            =   0.0000000000000E+00
(PID.TID 0000.0001) %MON forcing_empmr_min            =   0.0000000000000E+00
(PID.TID 0000.0001) %MON forcing_empmr_mean           =   0.0000000000000E+00
(PID.TID 0000.0001) %MON forcing_empmr_sd             =   0.0000000000000E+00
(PID.TID 0000.0001) %MON forcing_empmr_del2           =   0.0000000000000E+00
(PID.TID 0000.0001) %MON forcing_fu_max               =   0.0000000000000E+00
(PID.TID 0000.0001) %MON forcing_fu_min               =   0.0000000000000E+00
(PID.TID 0000.0001) %MON forcing_fu_mean              =   0.0000000000000E+00
(PID.TID 0000.0001) %MON forcing_fu_sd                =   0.0000000000000E+00
(PID.TID 0000.0001) %MON forcing_fu_del2              =   0.0000000000000E+00
(PID.TID 0000.0001) %MON forcing_fv_max               =   0.0000000000000E+00
(PID.TID 0000.0001) %MON forcing_fv_min               =   0.0000000000000E+00
(PID.TID 0000.0001) %MON forcing_fv_mean              =   0.0000000000000E+00
(PID.TID 0000.0001) %MON forcing_fv_sd                =   0.0000000000000E+00
(PID.TID 0000.0001) %MON forcing_fv_del2              =   0.0000000000000E+00
(PID.TID 0000.0001) %MON trAdv_CFL_u_max              =   0.0000000000000E+00
(PID.TID 0000.0001) %MON trAdv_CFL_v_max              =   0.0000000000000E+00
(PID.TID 0000.0001) %MON trAdv_CFL_w_max              =   0.0000000000000E+00
(PID.TID 0000.0001) %MON advcfl_uvel_max              =   7.6757822680034E-02
(PID.TID 0000.0001) %MON advcfl_vvel_max              =   1.1860877864772E-01
(PID.TID 0000.0001) %MON advcfl_wvel_max              =   1.0219070794384E+01
(PID.TID 0000.0001) %MON advcfl_W_hf_max              =   5.0990576573765E+00
(PID.TID 0000.0001) %MON pe_b_mean                    =   0.0000000000000E+00
(PID.TID 0000.0001) %MON ke_max                       =   1.6014653258787E+00
(PID.TID 0000.0001) %MON ke_mean                      =   2.5166672230983E-03
(PID.TID 0000.0001) %MON ke_vol                       =   4.5818637279720E+16
(PID.TID 0000.0001) %MON vort_r_min                   =  -2.7112786765354E-04
(PID.TID 0000.0001) %MON vort_r_max                   =   4.5284213837033E-04
(PID.TID 0000.0001) %MON vort_a_mean                  =   8.2147631506710E-05
(PID.TID 0000.0001) %MON vort_a_sd                    =   1.0110316133288E-05
(PID.TID 0000.0001) %MON vort_p_mean                  =   8.4848853092653E-05
(PID.TID 0000.0001) %MON vort_p_sd                    =   3.4983760879124E-05
(PID.TID 0000.0001) %MON surfExpan_theta_mean         =   2.0592395504451E-05
(PID.TID 0000.0001) %MON surfExpan_salt_mean          =  -1.7210634086920E-04
(PID.TID 0000.0001) // =======================================================
(PID.TID 0000.0001) // End MONITOR dynamic field statistics
(PID.TID 0000.0001) // =======================================================
(PID.TID 0000.0001) // =======================================================
(PID.TID 0000.0001) // Begin OBCS MONITOR field statistics
(PID.TID 0000.0001) // =======================================================
(PID.TID 0000.0001) %MON obc_N_vVel_max               =   6.9579085314553E-01
(PID.TID 0000.0001) %MON obc_N_vVel_min               =  -3.2183263391360E-01
(PID.TID 0000.0001) %MON obc_N_vVel_mean              =   1.3107185862961E-02
(PID.TID 0000.0001) %MON obc_N_vVel_sd                =   6.4693829583860E-02
(PID.TID 0000.0001) %MON obc_N_vVel_Int               =   1.8763047269621E+08
(PID.TID 0000.0001) %MON obc_S_vVel_max               =   1.8766679377822E+00
(PID.TID 0000.0001) %MON obc_S_vVel_min               =  -2.6178254188100E-01
(PID.TID 0000.0001) %MON obc_S_vVel_mean              =   4.1390867252904E-03
(PID.TID 0000.0001) %MON obc_S_vVel_sd                =   3.5756336765240E-02
(PID.TID 0000.0001) %MON obc_S_vVel_Int               =   1.2600580191554E+08
(PID.TID 0000.0001) %MON obc_N_theta_max              =   1.6390861045164E+01
(PID.TID 0000.0001) %MON obc_N_theta_min              =   1.8895907269856E+00
(PID.TID 0000.0001) %MON obc_N_theta_mean             =   5.1589805018888E+00
(PID.TID 0000.0001) %MON obc_N_theta_sd               =   3.4827339404776E+00
(PID.TID 0000.0001) %MON obc_S_theta_max              =   2.5544941308807E+01
(PID.TID 0000.0001) %MON obc_S_theta_min              =   1.4632956408867E+00
(PID.TID 0000.0001) %MON obc_S_theta_mean             =   5.4595577802114E+00
(PID.TID 0000.0001) %MON obc_S_theta_sd               =   5.3559370357223E+00
(PID.TID 0000.0001) %MON obc_N_salt_max               =   3.5910867647958E+01
(PID.TID 0000.0001) %MON obc_N_salt_min               =   3.3295014070045E+01
(PID.TID 0000.0001) %MON obc_N_salt_mean              =   3.5114564316350E+01
(PID.TID 0000.0001) %MON obc_N_salt_sd                =   3.0984932953669E-01
(PID.TID 0000.0001) %MON obc_S_salt_max               =   3.7318346630621E+01
(PID.TID 0000.0001) %MON obc_S_salt_min               =   3.4844694313817E+01
(PID.TID 0000.0001) %MON obc_S_salt_mean              =   3.5168372938834E+01
(PID.TID 0000.0001) %MON obc_S_salt_sd                =   4.5717110794259E-01
(PID.TID 0000.0001) // =======================================================
(PID.TID 0000.0001) // End OBCS MONITOR field statistics
(PID.TID 0000.0001) // =======================================================
(PID.TID 0000.0001)  EXF_INTERP_READ: opening file: jra55/jra55_u10m_2003
(PID.TID 0000.0001)  EXF_INTERP_READ: opening file: jra55/jra55_v10m_2003
(PID.TID 0000.0001)  EXF_INTERP_UV: fileU="jra55/jra55_u10m_2003", rec=     1 , x-Per,P.Sym=    T    T
(PID.TID 0000.0001)  S.edge (j=-1,0,1) : proc= 2.2 1.1 0.0, yIn=  -90.429910  -90.000000  -89.570090
(PID.TID 0000.0001)  N.edge (j=+0,+1,+2) proc= 0.0 1.1 2.2, yIn=   89.570063   90.000000   90.429937
(PID.TID 0000.0001)  EXF_INTERP_READ: opening file: jra55/jra55_u10m_2003
(PID.TID 0000.0001)  EXF_INTERP_READ: opening file: jra55/jra55_v10m_2003
(PID.TID 0000.0001)  EXF_INTERP_UV: fileU="jra55/jra55_u10m_2003", rec=     2 , x-Per,P.Sym=    T    T
(PID.TID 0000.0001)  S.edge (j=-1,0,1) : proc= 2.2 1.1 0.0, yIn=  -90.429910  -90.000000  -89.570090
(PID.TID 0000.0001)  N.edge (j=+0,+1,+2) proc= 0.0 1.1 2.2, yIn=   89.570063   90.000000   90.429937
(PID.TID 0000.0001)  EXF_INTERP_READ: opening file: jra55/jra55_tmp2m_degC_2003
(PID.TID 0000.0001)  EXF_INTERP: file="jra55/jra55_tmp2m_degC_2003", rec=     1 , x-Per,P.Sym=    T    T
(PID.TID 0000.0001)  S.edge (j=-1,0,1) : proc= 2.2 1.1 0.0, yIn=  -90.429910  -90.000000  -89.570090
(PID.TID 0000.0001)  N.edge (j=+0,+1,+2) proc= 0.0 1.1 2.2, yIn=   89.570063   90.000000   90.429937
(PID.TID 0000.0001)  EXF_INTERP_READ: opening file: jra55/jra55_tmp2m_degC_2003
(PID.TID 0000.0001)  EXF_INTERP: file="jra55/jra55_tmp2m_degC_2003", rec=     2 , x-Per,P.Sym=    T    T
(PID.TID 0000.0001)  S.edge (j=-1,0,1) : proc= 2.2 1.1 0.0, yIn=  -90.429910  -90.000000  -89.570090
(PID.TID 0000.0001)  N.edge (j=+0,+1,+2) proc= 0.0 1.1 2.2, yIn=   89.570063   90.000000   90.429937
(PID.TID 0000.0001)  EXF_INTERP_READ: opening file: jra55/jra55_spfh2m_2003
(PID.TID 0000.0001)  EXF_INTERP: file="jra55/jra55_spfh2m_2003", rec=     1 , x-Per,P.Sym=    T    T
(PID.TID 0000.0001)  S.edge (j=-1,0,1) : proc= 2.2 1.1 0.0, yIn=  -90.429910  -90.000000  -89.570090
(PID.TID 0000.0001)  N.edge (j=+0,+1,+2) proc= 0.0 1.1 2.2, yIn=   89.570063   90.000000   90.429937
(PID.TID 0000.0001)  EXF_INTERP_READ: opening file: jra55/jra55_spfh2m_2003
(PID.TID 0000.0001)  EXF_INTERP: file="jra55/jra55_spfh2m_2003", rec=     2 , x-Per,P.Sym=    T    T
(PID.TID 0000.0001)  S.edge (j=-1,0,1) : proc= 2.2 1.1 0.0, yIn=  -90.429910  -90.000000  -89.570090
(PID.TID 0000.0001)  N.edge (j=+0,+1,+2) proc= 0.0 1.1 2.2, yIn=   89.570063   90.000000   90.429937
(PID.TID 0000.0001)  EXF_INTERP_READ: opening file: jra55/jra55_rain_2002
(PID.TID 0000.0001)  EXF_INTERP: file="jra55/jra55_rain_2002", rec=  2920 , x-Per,P.Sym=    T    T
(PID.TID 0000.0001)  S.edge (j=-1,0,1) : proc= 2.2 1.1 0.0, yIn=  -90.429910  -90.000000  -89.570090
(PID.TID 0000.0001)  N.edge (j=+0,+1,+2) proc= 0.0 1.1 2.2, yIn=   89.570063   90.000000   90.429937
(PID.TID 0000.0001)  EXF_INTERP_READ: opening file: jra55/jra55_rain_2003
(PID.TID 0000.0001)  EXF_INTERP: file="jra55/jra55_rain_2003", rec=     1 , x-Per,P.Sym=    T    T
(PID.TID 0000.0001)  S.edge (j=-1,0,1) : proc= 2.2 1.1 0.0, yIn=  -90.429910  -90.000000  -89.570090
(PID.TID 0000.0001)  N.edge (j=+0,+1,+2) proc= 0.0 1.1 2.2, yIn=   89.570063   90.000000   90.429937
(PID.TID 0000.0001)  EXF_INTERP_READ: opening file: jra55/jra55_dsw_2002
(PID.TID 0000.0001)  EXF_INTERP: file="jra55/jra55_dsw_2002", rec=  2920 , x-Per,P.Sym=    T    T
(PID.TID 0000.0001)  S.edge (j=-1,0,1) : proc= 2.2 1.1 0.0, yIn=  -90.429910  -90.000000  -89.570090
(PID.TID 0000.0001)  N.edge (j=+0,+1,+2) proc= 0.0 1.1 2.2, yIn=   89.570063   90.000000   90.429937
(PID.TID 0000.0001)  EXF_INTERP_READ: opening file: jra55/jra55_dsw_2003
(PID.TID 0000.0001)  EXF_INTERP: file="jra55/jra55_dsw_2003", rec=     1 , x-Per,P.Sym=    T    T
(PID.TID 0000.0001)  S.edge (j=-1,0,1) : proc= 2.2 1.1 0.0, yIn=  -90.429910  -90.000000  -89.570090
(PID.TID 0000.0001)  N.edge (j=+0,+1,+2) proc= 0.0 1.1 2.2, yIn=   89.570063   90.000000   90.429937
(PID.TID 0000.0001)  EXF_INTERP_READ: opening file: jra55/jra55_dlw_2002
(PID.TID 0000.0001)  EXF_INTERP: file="jra55/jra55_dlw_2002", rec=  2920 , x-Per,P.Sym=    T    T
(PID.TID 0000.0001)  S.edge (j=-1,0,1) : proc= 2.2 1.1 0.0, yIn=  -90.429910  -90.000000  -89.570090
(PID.TID 0000.0001)  N.edge (j=+0,+1,+2) proc= 0.0 1.1 2.2, yIn=   89.570063   90.000000   90.429937
(PID.TID 0000.0001)  EXF_INTERP_READ: opening file: jra55/jra55_dlw_2003
(PID.TID 0000.0001)  EXF_INTERP: file="jra55/jra55_dlw_2003", rec=     1 , x-Per,P.Sym=    T    T
(PID.TID 0000.0001)  S.edge (j=-1,0,1) : proc= 2.2 1.1 0.0, yIn=  -90.429910  -90.000000  -89.570090
(PID.TID 0000.0001)  N.edge (j=+0,+1,+2) proc= 0.0 1.1 2.2, yIn=   89.570063   90.000000   90.429937
(PID.TID 0000.0001)  EXF_INTERP_READ: opening file: jra55/jra55_pres_2003
(PID.TID 0000.0001)  EXF_INTERP: file="jra55/jra55_pres_2003", rec=     1 , x-Per,P.Sym=    T    T
(PID.TID 0000.0001)  S.edge (j=-1,0,1) : proc= 2.2 1.1 0.0, yIn=  -90.429910  -90.000000  -89.570090
(PID.TID 0000.0001)  N.edge (j=+0,+1,+2) proc= 0.0 1.1 2.2, yIn=   89.570063   90.000000   90.429937
(PID.TID 0000.0001)  EXF_INTERP_READ: opening file: jra55/jra55_pres_2003
(PID.TID 0000.0001)  EXF_INTERP: file="jra55/jra55_pres_2003", rec=     2 , x-Per,P.Sym=    T    T
(PID.TID 0000.0001)  S.edge (j=-1,0,1) : proc= 2.2 1.1 0.0, yIn=  -90.429910  -90.000000  -89.570090
(PID.TID 0000.0001)  N.edge (j=+0,+1,+2) proc= 0.0 1.1 2.2, yIn=   89.570063   90.000000   90.429937
(PID.TID 0000.0001)  EXF_INTERP_READ: opening file: jra55/tide_2002
(PID.TID 0000.0001)  EXF_INTERP: file="jra55/tide_2002", rec=  8760 , x-Per,P.Sym=    T    T
(PID.TID 0000.0001)  S.edge (j=-1,0,1) : proc= 2.2 1.1 0.0, yIn=  -90.429910  -90.000000  -89.570090
(PID.TID 0000.0001)  N.edge (j=+0,+1,+2) proc= 0.0 1.1 2.2, yIn=   89.570063   90.000000   90.429937
(PID.TID 0000.0001)  EXF_INTERP_READ: opening file: jra55/tide_2003
(PID.TID 0000.0001)  EXF_INTERP: file="jra55/tide_2003", rec=     1 , x-Per,P.Sym=    T    T
(PID.TID 0000.0001)  S.edge (j=-1,0,1) : proc= 2.2 1.1 0.0, yIn=  -90.429910  -90.000000  -89.570090
(PID.TID 0000.0001)  N.edge (j=+0,+1,+2) proc= 0.0 1.1 2.2, yIn=   89.570063   90.000000   90.429937
(PID.TID 0000.0001)  EXF_INTERP_READ: opening file: runoff1p2472-360x180x12.bin
(PID.TID 0000.0001)  EXF_INTERP: file="runoff1p2472-360x180x12.bin", rec=    12 , x-Per,P.Sym=    T    T
(PID.TID 0000.0001)  S.edge (j=-1,0,1) : proc= 2.2 1.1 0.0, yIn=  -90.500000  -90.000000  -89.500000
(PID.TID 0000.0001)  N.edge (j=+0,+1,+2) proc= 0.0 1.1 2.2, yIn=   89.500000   90.000000   90.500000
(PID.TID 0000.0001)  EXF_INTERP_READ: opening file: runoff1p2472-360x180x12.bin
(PID.TID 0000.0001)  EXF_INTERP: file="runoff1p2472-360x180x12.bin", rec=     1 , x-Per,P.Sym=    T    T
(PID.TID 0000.0001)  S.edge (j=-1,0,1) : proc= 2.2 1.1 0.0, yIn=  -90.500000  -90.000000  -89.500000
(PID.TID 0000.0001)  N.edge (j=+0,+1,+2) proc= 0.0 1.1 2.2, yIn=   89.500000   90.000000   90.500000
(PID.TID 0000.0001) // =======================================================
(PID.TID 0000.0001) // Begin MONITOR EXF statistics
(PID.TID 0000.0001) // =======================================================
(PID.TID 0000.0001) %MON exf_tsnumber                 =                     0
(PID.TID 0000.0001) %MON exf_time_sec                 =   0.0000000000000E+00
(PID.TID 0000.0001) %MON exf_ustress_max              =   5.9828291677676E-01
(PID.TID 0000.0001) %MON exf_ustress_min              =  -1.8433291893505E-01
(PID.TID 0000.0001) %MON exf_ustress_mean             =   9.9906877250448E-02
(PID.TID 0000.0001) %MON exf_ustress_sd               =   1.3888319317712E-01
(PID.TID 0000.0001) %MON exf_ustress_del2             =   1.8085119516651E-07
(PID.TID 0000.0001) %MON exf_vstress_max              =   4.1798761582242E-01
(PID.TID 0000.0001) %MON exf_vstress_min              =  -4.7987588799952E-01
(PID.TID 0000.0001) %MON exf_vstress_mean             =   2.7201310025817E-02
(PID.TID 0000.0001) %MON exf_vstress_sd               =   1.5638433904604E-01
(PID.TID 0000.0001) %MON exf_vstress_del2             =   3.2163901710978E-07
(PID.TID 0000.0001) %MON exf_hflux_max                =   1.0771745331196E+03
(PID.TID 0000.0001) %MON exf_hflux_min                =  -1.3859551153078E+02
(PID.TID 0000.0001) %MON exf_hflux_mean               =   3.2588614775414E+02
(PID.TID 0000.0001) %MON exf_hflux_sd                 =   2.1434634687775E+02
(PID.TID 0000.0001) %MON exf_hflux_del2               =   8.7389841728847E-02
(PID.TID 0000.0001) %MON exf_sflux_max                =   2.3097424340112E-07
(PID.TID 0000.0001) %MON exf_sflux_min                =  -9.5795578973554E-07
(PID.TID 0000.0001) %MON exf_sflux_mean               =   4.3559453571910E-08
(PID.TID 0000.0001) %MON exf_sflux_sd                 =   1.0501221981429E-07
(PID.TID 0000.0001) %MON exf_sflux_del2               =   2.3666915803943E-11
(PID.TID 0000.0001) %MON exf_uwind_max                =   1.6141123164518E+01
(PID.TID 0000.0001) %MON exf_uwind_min                =  -1.0679580698115E+01
(PID.TID 0000.0001) %MON exf_uwind_mean               =   4.3821942843440E+00
(PID.TID 0000.0001) %MON exf_uwind_sd                 =   5.9486086822155E+00
(PID.TID 0000.0001) %MON exf_uwind_del2               =   1.6448658175507E-03
(PID.TID 0000.0001) %MON exf_vwind_max                =   1.5090364000730E+01
(PID.TID 0000.0001) %MON exf_vwind_min                =  -1.3251599583846E+01
(PID.TID 0000.0001) %MON exf_vwind_mean               =   1.6972387870683E+00
(PID.TID 0000.0001) %MON exf_vwind_sd                 =   7.4352263176458E+00
(PID.TID 0000.0001) %MON exf_vwind_del2               =   1.6982711207806E-03
(PID.TID 0000.0001) %MON exf_wspeed_max               =   1.8530427213460E+01
(PID.TID 0000.0001) %MON exf_wspeed_min               =   1.0106641037926E-02
(PID.TID 0000.0001) %MON exf_wspeed_mean              =   9.9876551678292E+00
(PID.TID 0000.0001) %MON exf_wspeed_sd                =   3.6054855627700E+00
(PID.TID 0000.0001) %MON exf_wspeed_del2              =   2.3641902431200E-03
(PID.TID 0000.0001) %MON exf_atemp_max                =   2.9779365601525E+02
(PID.TID 0000.0001) %MON exf_atemp_min                =   2.7422282548718E+02
(PID.TID 0000.0001) %MON exf_atemp_mean               =   2.8987749353801E+02
(PID.TID 0000.0001) %MON exf_atemp_sd                 =   4.3354310499167E+00
(PID.TID 0000.0001) %MON exf_atemp_del2               =   3.7040828102967E-03
(PID.TID 0000.0001) %MON exf_aqh_max                  =   1.4680264583793E-02
(PID.TID 0000.0001) %MON exf_aqh_min                  =   3.0385509503180E-03
(PID.TID 0000.0001) %MON exf_aqh_mean                 =   9.5885286666975E-03
(PID.TID 0000.0001) %MON exf_aqh_sd                   =   2.2791479271258E-03
(PID.TID 0000.0001) %MON exf_aqh_del2                 =   2.1314671736198E-06
(PID.TID 0000.0001) %MON exf_lwflux_max               =   1.5865744684041E+02
(PID.TID 0000.0001) %MON exf_lwflux_min               =   1.8159899444148E+00
(PID.TID 0000.0001) %MON exf_lwflux_mean              =   7.2824506135939E+01
(PID.TID 0000.0001) %MON exf_lwflux_sd                =   2.7811147438135E+01
(PID.TID 0000.0001) %MON exf_lwflux_del2              =   1.7303388339492E-02
(PID.TID 0000.0001) %MON exf_evap_max                 =   2.5264450323165E-07
(PID.TID 0000.0001) %MON exf_evap_min                 =  -4.3150900377304E-08
(PID.TID 0000.0001) %MON exf_evap_mean                =   8.0306712012427E-08
(PID.TID 0000.0001) %MON exf_evap_sd                  =   5.6712124974999E-08
(PID.TID 0000.0001) %MON exf_evap_del2                =   2.1779542594896E-11
(PID.TID 0000.0001) %MON exf_precip_max               =   9.5810364743679E-07
(PID.TID 0000.0001) %MON exf_precip_min               =   0.0000000000000E+00
(PID.TID 0000.0001) %MON exf_precip_mean              =   3.5158778868526E-08
(PID.TID 0000.0001) %MON exf_precip_sd                =   7.8175827170829E-08
(PID.TID 0000.0001) %MON exf_precip_del2              =   1.7295962776673E-11
(PID.TID 0000.0001) %MON exf_swflux_max               =   0.0000000000000E+00
(PID.TID 0000.0001) %MON exf_swflux_min               =  -2.3728315594647E+01
(PID.TID 0000.0001) %MON exf_swflux_mean              =  -7.9028957973714E-01
(PID.TID 0000.0001) %MON exf_swflux_sd                =   2.5059807263017E+00
(PID.TID 0000.0001) %MON exf_swflux_del2              =   5.4207406517501E-04
(PID.TID 0000.0001) %MON exf_swdown_max               =   2.6364795105163E+01
(PID.TID 0000.0001) %MON exf_swdown_min               =   0.0000000000000E+00
(PID.TID 0000.0001) %MON exf_swdown_mean              =   8.7809953304126E-01
(PID.TID 0000.0001) %MON exf_swdown_sd                =   2.7844230292241E+00
(PID.TID 0000.0001) %MON exf_swdown_del2              =   6.0230451686112E-04
(PID.TID 0000.0001) %MON exf_lwdown_max               =   4.0176146581389E+02
(PID.TID 0000.0001) %MON exf_lwdown_min               =   2.4830109152218E+02
(PID.TID 0000.0001) %MON exf_lwdown_mean              =   3.4205174193616E+02
(PID.TID 0000.0001) %MON exf_lwdown_sd                =   2.7548444956077E+01
(PID.TID 0000.0001) %MON exf_lwdown_del2              =   7.4678186276892E-02
(PID.TID 0000.0001) %MON exf_apressure_max            =   1.0299751478971E+05
(PID.TID 0000.0001) %MON exf_apressure_min            =   9.9661165507357E+04
(PID.TID 0000.0001) %MON exf_apressure_mean           =   1.0185750621569E+05
(PID.TID 0000.0001) %MON exf_apressure_sd             =   8.4139526050191E+02
(PID.TID 0000.0001) %MON exf_apressure_del2           =   2.2283178733130E+01
(PID.TID 0000.0001) %MON exf_runoff_max               =   4.4374798712073E-08
(PID.TID 0000.0001) %MON exf_runoff_min               =   0.0000000000000E+00
(PID.TID 0000.0001) %MON exf_runoff_mean              =   1.5884795719908E-09
(PID.TID 0000.0001) %MON exf_runoff_sd                =   5.3901959599983E-09
(PID.TID 0000.0001) %MON exf_runoff_del2              =   1.2741189756369E-12
(PID.TID 0000.0001) // =======================================================
(PID.TID 0000.0001) // End MONITOR EXF statistics
(PID.TID 0000.0001) // =======================================================
(PID.TID 0000.0001) SOLVE_FOR_PRESSURE: putPmEinXvector =    F
 cg2d: Sum(rhs),rhsMax =   5.26806012293013E+01  2.94748850905822E-01
(PID.TID 0000.0001)      cg2d_init_res =   1.55090900108570E+01
(PID.TID 0000.0001)      cg2d_iters(min,last) =      -1     326
(PID.TID 0000.0001)      cg2d_last_res =   6.94177703533131E-12
(PID.TID 0000.0001) // =======================================================
(PID.TID 0000.0001) // Begin MONITOR dynamic field statistics
(PID.TID 0000.0001) // =======================================================
(PID.TID 0000.0001) %MON time_tsnumber                =                     1
(PID.TID 0000.0001) %MON time_secondsf                =   2.4000000000000E+02
(PID.TID 0000.0001) %MON dynstat_eta_max              =   9.9412811450367E-01
(PID.TID 0000.0001) %MON dynstat_eta_min              =  -1.3588287570572E+00
(PID.TID 0000.0001) %MON dynstat_eta_mean             =  -1.7915145317381E-03
(PID.TID 0000.0001) %MON dynstat_eta_sd               =   6.5767602171254E-02
(PID.TID 0000.0001) %MON dynstat_eta_del2             =   7.8016898749377E-06
(PID.TID 0000.0001) %MON dynstat_uvel_max             =   1.2707741519560E+00
(PID.TID 0000.0001) %MON dynstat_uvel_min             =  -6.9994751721184E-01
(PID.TID 0000.0001) %MON dynstat_uvel_mean            =   4.0308160004367E-03
(PID.TID 0000.0001) %MON dynstat_uvel_sd              =   5.2161498683306E-02
(PID.TID 0000.0001) %MON dynstat_uvel_del2            =   4.4002806019890E-07
(PID.TID 0000.0001) %MON dynstat_vvel_max             =   1.8944082266793E+00
(PID.TID 0000.0001) %MON dynstat_vvel_min             =  -8.8170751529662E-01
(PID.TID 0000.0001) %MON dynstat_vvel_mean            =  -6.3159856683335E-04
(PID.TID 0000.0001) %MON dynstat_vvel_sd              =   4.8192542356488E-02
(PID.TID 0000.0001) %MON dynstat_vvel_del2            =   4.1703701588227E-07
(PID.TID 0000.0001) %MON dynstat_wvel_max             =   3.6312780565705E-02
(PID.TID 0000.0001) %MON dynstat_wvel_min             =  -3.3422531834987E-02
(PID.TID 0000.0001) %MON dynstat_wvel_mean            =  -3.0884693882598E-06
(PID.TID 0000.0001) %MON dynstat_wvel_sd              =   5.9794853980429E-04
(PID.TID 0000.0001) %MON dynstat_wvel_del2            =   9.0656083958221E-08
(PID.TID 0000.0001) %MON dynstat_theta_max            =   2.6141461660545E+01
(PID.TID 0000.0001) %MON dynstat_theta_min            =   1.4688636746314E+00
(PID.TID 0000.0001) %MON dynstat_theta_mean           =   5.5098707302609E+00
(PID.TID 0000.0001) %MON dynstat_theta_sd             =   4.7735025594388E+00
(PID.TID 0000.0001) %MON dynstat_theta_del2           =   4.0094511755221E-06
(PID.TID 0000.0001) %MON dynstat_salt_max             =   3.9184248895775E+01
(PID.TID 0000.0001) %MON dynstat_salt_min             =   3.3089717891057E+01
(PID.TID 0000.0001) %MON dynstat_salt_mean            =   3.5173373024131E+01
(PID.TID 0000.0001) %MON dynstat_salt_sd              =   3.7891621397087E-01
(PID.TID 0000.0001) %MON dynstat_salt_del2            =   4.9539221517129E-07
(PID.TID 0000.0001) %MON dynstat_sst_max              =   2.6138440551478E+01
(PID.TID 0000.0001) %MON dynstat_sst_min              =   4.0763621420088E+00
(PID.TID 0000.0001) %MON dynstat_sst_mean             =   1.9647520675830E+01
(PID.TID 0000.0001) %MON dynstat_sst_sd               =   3.6381507129227E+00
(PID.TID 0000.0001) %MON dynstat_sst_del2             =   1.9150675732700E-05
(PID.TID 0000.0001) %MON dynstat_sss_max              =   3.7335144464739E+01
(PID.TID 0000.0001) %MON dynstat_sss_min              =   3.3089717891057E+01
(PID.TID 0000.0001) %MON dynstat_sss_mean             =   3.5868036087674E+01
(PID.TID 0000.0001) %MON dynstat_sss_sd               =   4.8721788558719E-01
(PID.TID 0000.0001) %MON dynstat_sss_del2             =   5.0258519668801E-06
(PID.TID 0000.0001) %MON forcing_qnet_max             =   1.0936094740935E+03
(PID.TID 0000.0001) %MON forcing_qnet_min             =  -1.6395575320352E+02
(PID.TID 0000.0001) %MON forcing_qnet_mean            =   3.3037701043126E+02
(PID.TID 0000.0001) %MON forcing_qnet_sd              =   2.2009895100884E+02
(PID.TID 0000.0001) %MON forcing_qnet_del2            =   1.2044715078787E-03
(PID.TID 0000.0001) %MON forcing_qsw_max              =   0.0000000000000E+00
(PID.TID 0000.0001) %MON forcing_qsw_min              =  -2.3728315594647E+01
(PID.TID 0000.0001) %MON forcing_qsw_mean             =  -7.9028957973714E-01
(PID.TID 0000.0001) %MON forcing_qsw_sd               =   2.5059807263017E+00
(PID.TID 0000.0001) %MON forcing_qsw_del2             =   8.0702644278991E-06
(PID.TID 0000.0001) %MON forcing_empmr_max            =   2.3097424340112E-04
(PID.TID 0000.0001) %MON forcing_empmr_min            =  -9.5795578973554E-04
(PID.TID 0000.0001) %MON forcing_empmr_mean           =   4.3559453571910E-05
(PID.TID 0000.0001) %MON forcing_empmr_sd             =   1.0501221981429E-04
(PID.TID 0000.0001) %MON forcing_empmr_del2           =   8.3077372202561E-10
(PID.TID 0000.0001) %MON forcing_fu_max               =   5.9826021696462E-01
(PID.TID 0000.0001) %MON forcing_fu_min               =  -1.8433236576096E-01
(PID.TID 0000.0001) %MON forcing_fu_mean              =   1.0001601103669E-01
(PID.TID 0000.0001) %MON forcing_fu_sd                =   1.3891332034836E-01
(PID.TID 0000.0001) %MON forcing_fu_del2              =   1.6404057389575E-07
(PID.TID 0000.0001) %MON forcing_fv_max               =   4.1791626663461E-01
(PID.TID 0000.0001) %MON forcing_fv_min               =  -4.7987415619332E-01
(PID.TID 0000.0001) %MON forcing_fv_mean              =   2.7135661200322E-02
(PID.TID 0000.0001) %MON forcing_fv_sd                =   1.5639709878754E-01
(PID.TID 0000.0001) %MON forcing_fv_del2              =   3.0625126566278E-07
(PID.TID 0000.0001) %MON trAdv_CFL_u_max              =   7.7086162260084E-02
(PID.TID 0000.0001) %MON trAdv_CFL_v_max              =   1.1969517004292E-01
(PID.TID 0000.0001) %MON trAdv_CFL_w_max              =   6.5358572510923E-01
(PID.TID 0000.0001) %MON advcfl_uvel_max              =   7.7086161210486E-02
(PID.TID 0000.0001) %MON advcfl_vvel_max              =   1.1972999671543E-01
(PID.TID 0000.0001) %MON advcfl_wvel_max              =   6.5358572510923E-01
(PID.TID 0000.0001) %MON advcfl_W_hf_max              =   6.5358572510923E-01
(PID.TID 0000.0001) %MON pe_b_mean                    =  -3.6814491504213E-05
(PID.TID 0000.0001) %MON ke_max                       =   1.6131880844041E+00
(PID.TID 0000.0001) %MON ke_mean                      =   2.5112537952836E-03
(PID.TID 0000.0001) %MON ke_vol                       =   4.5818637279720E+16
(PID.TID 0000.0001) %MON vort_r_min                   =  -3.7588081257696E-04
(PID.TID 0000.0001) %MON vort_r_max                   =   5.4398705294798E-04
(PID.TID 0000.0001) %MON vort_a_mean                  =   8.2147630795905E-05
(PID.TID 0000.0001) %MON vort_a_sd                    =   1.0119181593283E-05
(PID.TID 0000.0001) %MON vort_p_mean                  =   8.4848852358474E-05
(PID.TID 0000.0001) %MON vort_p_sd                    =   3.4986073066055E-05
(PID.TID 0000.0001) %MON surfExpan_theta_mean         =   4.0383761087577E-05
(PID.TID 0000.0001) %MON surfExpan_salt_mean          =  -2.3863036924187E-04
(PID.TID 0000.0001) // =======================================================
(PID.TID 0000.0001) // End MONITOR dynamic field statistics
(PID.TID 0000.0001) // =======================================================
(PID.TID 0000.0001) // =======================================================
(PID.TID 0000.0001) // Begin OBCS MONITOR field statistics
(PID.TID 0000.0001) // =======================================================
(PID.TID 0000.0001) %MON obc_N_vVel_max               =   6.9574427194414E-01
(PID.TID 0000.0001) %MON obc_N_vVel_min               =  -3.2190138536929E-01
(PID.TID 0000.0001) %MON obc_N_vVel_mean              =   1.3214372707035E-02
(PID.TID 0000.0001) %MON obc_N_vVel_sd                =   6.4696568943744E-02
(PID.TID 0000.0001) %MON obc_N_vVel_Int               =   1.8916486142242E+08
(PID.TID 0000.0001) %MON obc_S_vVel_max               =   1.8944082266793E+00
(PID.TID 0000.0001) %MON obc_S_vVel_min               =  -2.6193006856167E-01
(PID.TID 0000.0001) %MON obc_S_vVel_mean              =   3.4426239329257E-03
(PID.TID 0000.0001) %MON obc_S_vVel_sd                =   3.5781323435683E-02
(PID.TID 0000.0001) %MON obc_S_vVel_Int               =   1.0480345500166E+08
(PID.TID 0000.0001) %MON obc_N_theta_max              =   1.6390772942977E+01
(PID.TID 0000.0001) %MON obc_N_theta_min              =   1.8895907760510E+00
(PID.TID 0000.0001) %MON obc_N_theta_mean             =   5.1589731177388E+00
(PID.TID 0000.0001) %MON obc_N_theta_sd               =   3.4827246474693E+00
(PID.TID 0000.0001) %MON obc_S_theta_max              =   2.5544838560027E+01
(PID.TID 0000.0001) %MON obc_S_theta_min              =   1.4632960371739E+00
(PID.TID 0000.0001) %MON obc_S_theta_mean             =   5.4595569751868E+00
(PID.TID 0000.0001) %MON obc_S_theta_sd               =   5.3559331643598E+00
(PID.TID 0000.0001) %MON obc_N_salt_max               =   3.5910867239595E+01
(PID.TID 0000.0001) %MON obc_N_salt_min               =   3.3295019572678E+01
(PID.TID 0000.0001) %MON obc_N_salt_mean              =   3.5114564020364E+01
(PID.TID 0000.0001) %MON obc_N_salt_sd                =   3.0984921004960E-01
(PID.TID 0000.0001) %MON obc_S_salt_max               =   3.7318339746237E+01
(PID.TID 0000.0001) %MON obc_S_salt_min               =   3.4844694366037E+01
(PID.TID 0000.0001) %MON obc_S_salt_mean              =   3.5168372866917E+01
(PID.TID 0000.0001) %MON obc_S_salt_sd                =   4.5717075682044E-01
(PID.TID 0000.0001) // =======================================================
(PID.TID 0000.0001) // End OBCS MONITOR field statistics
(PID.TID 0000.0001) // =======================================================
(PID.TID 0000.0001) // =======================================================
(PID.TID 0000.0001) // Begin MONITOR EXF statistics
(PID.TID 0000.0001) // =======================================================
(PID.TID 0000.0001) %MON exf_tsnumber                 =                     1
(PID.TID 0000.0001) %MON exf_time_sec                 =   2.4000000000000E+02
(PID.TID 0000.0001) %MON exf_ustress_max              =   5.9444080643116E-01
(PID.TID 0000.0001) %MON exf_ustress_min              =  -1.8297202646769E-01
(PID.TID 0000.0001) %MON exf_ustress_mean             =   9.9574893492119E-02
(PID.TID 0000.0001) %MON exf_ustress_sd               =   1.3827272231019E-01
(PID.TID 0000.0001) %MON exf_ustress_del2             =   1.9116559853301E-07
(PID.TID 0000.0001) %MON exf_vstress_max              =   4.1588018436439E-01
(PID.TID 0000.0001) %MON exf_vstress_min              =  -4.7836001495822E-01
(PID.TID 0000.0001) %MON exf_vstress_mean             =   2.7279895610507E-02
(PID.TID 0000.0001) %MON exf_vstress_sd               =   1.5577776480513E-01
(PID.TID 0000.0001) %MON exf_vstress_del2             =   3.2599440636865E-07
(PID.TID 0000.0001) %MON exf_hflux_max                =   1.0735926469508E+03
(PID.TID 0000.0001) %MON exf_hflux_min                =  -1.3746935606262E+02
(PID.TID 0000.0001) %MON exf_hflux_mean               =   3.2532645539413E+02
(PID.TID 0000.0001) %MON exf_hflux_sd                 =   2.1374533705589E+02
(PID.TID 0000.0001) %MON exf_hflux_del2               =   8.7193120504360E-02
(PID.TID 0000.0001) %MON exf_sflux_max                =   2.3008064329611E-07
(PID.TID 0000.0001) %MON exf_sflux_min                =  -9.7120990263946E-07
(PID.TID 0000.0001) %MON exf_sflux_mean               =   4.3294519822534E-08
(PID.TID 0000.0001) %MON exf_sflux_sd                 =   1.0531422684928E-07
(PID.TID 0000.0001) %MON exf_sflux_del2               =   2.3686205203725E-11
(PID.TID 0000.0001) %MON exf_uwind_max                =   1.6069076923435E+01
(PID.TID 0000.0001) %MON exf_uwind_min                =  -1.0645357965396E+01
(PID.TID 0000.0001) %MON exf_uwind_mean               =   4.3789429728531E+00
(PID.TID 0000.0001) %MON exf_uwind_sd                 =   5.9407642330690E+00
(PID.TID 0000.0001) %MON exf_uwind_del2               =   1.6432379761989E-03
(PID.TID 0000.0001) %MON exf_vwind_max                =   1.5060774402422E+01
(PID.TID 0000.0001) %MON exf_vwind_min                =  -1.3224434284779E+01
(PID.TID 0000.0001) %MON exf_vwind_mean               =   1.7026945934500E+00
(PID.TID 0000.0001) %MON exf_vwind_sd                 =   7.4233921974387E+00
(PID.TID 0000.0001) %MON exf_vwind_del2               =   1.6958737605763E-03
(PID.TID 0000.0001) %MON exf_wspeed_max               =   1.8497014440771E+01
(PID.TID 0000.0001) %MON exf_wspeed_min               =   6.0179518766759E-02
(PID.TID 0000.0001) %MON exf_wspeed_mean              =   9.9763693938902E+00
(PID.TID 0000.0001) %MON exf_wspeed_sd                =   3.5980266181088E+00
(PID.TID 0000.0001) %MON exf_wspeed_del2              =   2.3613347428975E-03
(PID.TID 0000.0001) %MON exf_atemp_max                =   2.9779320198741E+02
(PID.TID 0000.0001) %MON exf_atemp_min                =   2.7424283192223E+02
(PID.TID 0000.0001) %MON exf_atemp_mean               =   2.8987756705114E+02
(PID.TID 0000.0001) %MON exf_atemp_sd                 =   4.3318673256009E+00
(PID.TID 0000.0001) %MON exf_atemp_del2               =   3.7040486836662E-03
(PID.TID 0000.0001) %MON exf_aqh_max                  =   1.4674778444218E-02
(PID.TID 0000.0001) %MON exf_aqh_min                  =   3.0467762325991E-03
(PID.TID 0000.0001) %MON exf_aqh_mean                 =   9.5881454841722E-03
(PID.TID 0000.0001) %MON exf_aqh_sd                   =   2.2765791315054E-03
(PID.TID 0000.0001) %MON exf_aqh_del2                 =   2.1313191920950E-06
(PID.TID 0000.0001) %MON exf_lwflux_max               =   1.5843780380886E+02
(PID.TID 0000.0001) %MON exf_lwflux_min               =   1.6090628198622E+00
(PID.TID 0000.0001) %MON exf_lwflux_mean              =   7.2807821946412E+01
(PID.TID 0000.0001) %MON exf_lwflux_sd                =   2.7811853382478E+01
(PID.TID 0000.0001) %MON exf_lwflux_del2              =   1.7298573765070E-02
(PID.TID 0000.0001) %MON exf_evap_max                 =   2.5177260463193E-07
(PID.TID 0000.0001) %MON exf_evap_min                 =  -4.2936091021610E-08
(PID.TID 0000.0001) %MON exf_evap_mean                =   8.0136636443264E-08
(PID.TID 0000.0001) %MON exf_evap_sd                  =   5.6539693610193E-08
(PID.TID 0000.0001) %MON exf_evap_del2                =   2.1723449071631E-11
(PID.TID 0000.0001) %MON exf_precip_max               =   9.7121393552868E-07
(PID.TID 0000.0001) %MON exf_precip_min               =   0.0000000000000E+00
(PID.TID 0000.0001) %MON exf_precip_mean              =   3.5253637048740E-08
(PID.TID 0000.0001) %MON exf_precip_sd                =   7.8573980115841E-08
(PID.TID 0000.0001) %MON exf_precip_del2              =   1.7370041428679E-11
(PID.TID 0000.0001) %MON exf_swflux_max               =   0.0000000000000E+00
(PID.TID 0000.0001) %MON exf_swflux_min               =  -2.2673723790440E+01
(PID.TID 0000.0001) %MON exf_swflux_mean              =  -7.5516559841549E-01
(PID.TID 0000.0001) %MON exf_swflux_sd                =   2.3946038051327E+00
(PID.TID 0000.0001) %MON exf_swflux_del2              =   5.1798188450057E-04
(PID.TID 0000.0001) %MON exf_swdown_max               =   2.5193026433823E+01
(PID.TID 0000.0001) %MON exf_swdown_min               =   0.0000000000000E+00
(PID.TID 0000.0001) %MON exf_swdown_mean              =   8.3907288712832E-01
(PID.TID 0000.0001) %MON exf_swdown_sd                =   2.6606708945919E+00
(PID.TID 0000.0001) %MON exf_swdown_del2              =   5.7553542722285E-04
(PID.TID 0000.0001) %MON exf_lwdown_max               =   4.0186345913350E+02
(PID.TID 0000.0001) %MON exf_lwdown_min               =   2.4851490532549E+02
(PID.TID 0000.0001) %MON exf_lwdown_mean              =   3.4205272002334E+02
(PID.TID 0000.0001) %MON exf_lwdown_sd                =   2.7535958185204E+01
(PID.TID 0000.0001) %MON exf_lwdown_del2              =   7.4678535000548E-02
(PID.TID 0000.0001) %MON exf_apressure_max            =   1.0299488031807E+05
(PID.TID 0000.0001) %MON exf_apressure_min            =   9.9660044923776E+04
(PID.TID 0000.0001) %MON exf_apressure_mean           =   1.0185587250794E+05
(PID.TID 0000.0001) %MON exf_apressure_sd             =   8.4080035076119E+02
(PID.TID 0000.0001) %MON exf_apressure_del2           =   2.2282830653047E+01
(PID.TID 0000.0001) %MON exf_runoff_max               =   4.4374798712073E-08
(PID.TID 0000.0001) %MON exf_runoff_min               =   0.0000000000000E+00
(PID.TID 0000.0001) %MON exf_runoff_mean              =   1.5884795719908E-09
(PID.TID 0000.0001) %MON exf_runoff_sd                =   5.3901959599983E-09
(PID.TID 0000.0001) %MON exf_runoff_del2              =   1.2741189756369E-12
(PID.TID 0000.0001) // =======================================================
(PID.TID 0000.0001) // End MONITOR EXF statistics
(PID.TID 0000.0001) // =======================================================
 cg2d: Sum(rhs),rhsMax =   1.19494929877160E+02  4.70621201080247E-02
(PID.TID 0000.0001)      cg2d_init_res =   1.39139808163917E+01
(PID.TID 0000.0001)      cg2d_iters(min,last) =      -1     323
(PID.TID 0000.0001)      cg2d_last_res =   6.83999908626909E-12
(PID.TID 0000.0001) // =======================================================
(PID.TID 0000.0001) // Begin MONITOR dynamic field statistics
(PID.TID 0000.0001) // =======================================================
(PID.TID 0000.0001) %MON time_tsnumber                =                     2
(PID.TID 0000.0001) %MON time_secondsf                =   4.8000000000000E+02
(PID.TID 0000.0001) %MON dynstat_eta_max              =   8.7213419671841E-01
(PID.TID 0000.0001) %MON dynstat_eta_min              =  -1.5271771890810E+00
(PID.TID 0000.0001) %MON dynstat_eta_mean             =  -4.0636761606450E-03
(PID.TID 0000.0001) %MON dynstat_eta_sd               =   9.7369446197412E-02
(PID.TID 0000.0001) %MON dynstat_eta_del2             =   3.4512172888949E-06
(PID.TID 0000.0001) %MON dynstat_uvel_max             =   1.2807645387051E+00
(PID.TID 0000.0001) %MON dynstat_uvel_min             =  -7.0568651252419E-01
(PID.TID 0000.0001) %MON dynstat_uvel_mean            =   4.1314519782853E-03
(PID.TID 0000.0001) %MON dynstat_uvel_sd              =   5.2275008693872E-02
(PID.TID 0000.0001) %MON dynstat_uvel_del2            =   4.6177917589188E-07
(PID.TID 0000.0001) %MON dynstat_vvel_max             =   1.9227748132589E+00
(PID.TID 0000.0001) %MON dynstat_vvel_min             =  -8.8192356084168E-01
(PID.TID 0000.0001) %MON dynstat_vvel_mean            =  -1.0657047542953E-03
(PID.TID 0000.0001) %MON dynstat_vvel_sd              =   4.8169981833012E-02
(PID.TID 0000.0001) %MON dynstat_vvel_del2            =   4.2795021063265E-07
(PID.TID 0000.0001) %MON dynstat_wvel_max             =   3.7123384846506E-02
(PID.TID 0000.0001) %MON dynstat_wvel_min             =  -3.2772926225187E-02
(PID.TID 0000.0001) %MON dynstat_wvel_mean            =  -4.3165097998947E-06
(PID.TID 0000.0001) %MON dynstat_wvel_sd              =   5.8525272795622E-04
(PID.TID 0000.0001) %MON dynstat_wvel_del2            =   9.0305178525559E-08
(PID.TID 0000.0001) %MON dynstat_theta_max            =   2.6140838882175E+01
(PID.TID 0000.0001) %MON dynstat_theta_min            =   1.4688637566655E+00
(PID.TID 0000.0001) %MON dynstat_theta_mean           =   5.5098607188413E+00
(PID.TID 0000.0001) %MON dynstat_theta_sd             =   4.7734686928692E+00
(PID.TID 0000.0001) %MON dynstat_theta_del2           =   4.0037377753133E-06
(PID.TID 0000.0001) %MON dynstat_salt_max             =   3.9182775247029E+01
(PID.TID 0000.0001) %MON dynstat_salt_min             =   3.3089852629559E+01
(PID.TID 0000.0001) %MON dynstat_salt_mean            =   3.5173371539343E+01
(PID.TID 0000.0001) %MON dynstat_salt_sd              =   3.7891461157598E-01
(PID.TID 0000.0001) %MON dynstat_salt_del2            =   4.9558919167831E-07
(PID.TID 0000.0001) %MON dynstat_sst_max              =   2.6135867174682E+01
(PID.TID 0000.0001) %MON dynstat_sst_min              =   4.0613809106396E+00
(PID.TID 0000.0001) %MON dynstat_sst_mean             =   1.9645342078954E+01
(PID.TID 0000.0001) %MON dynstat_sst_sd               =   3.6376928925835E+00
(PID.TID 0000.0001) %MON dynstat_sst_del2             =   1.9099296532307E-05
(PID.TID 0000.0001) %MON dynstat_sss_max              =   3.7335162064893E+01
(PID.TID 0000.0001) %MON dynstat_sss_min              =   3.3089852629559E+01
(PID.TID 0000.0001) %MON dynstat_sss_mean             =   3.5868109206943E+01
(PID.TID 0000.0001) %MON dynstat_sss_sd               =   4.8725164945020E-01
(PID.TID 0000.0001) %MON dynstat_sss_del2             =   5.0103241722177E-06
(PID.TID 0000.0001) %MON forcing_qnet_max             =   1.0899373544753E+03
(PID.TID 0000.0001) %MON forcing_qnet_min             =  -1.6574942734651E+02
(PID.TID 0000.0001) %MON forcing_qnet_mean            =   3.2979510304634E+02
(PID.TID 0000.0001) %MON forcing_qnet_sd              =   2.1950048470013E+02
(PID.TID 0000.0001) %MON forcing_qnet_del2            =   1.1971794996354E-03
(PID.TID 0000.0001) %MON forcing_qsw_max              =   0.0000000000000E+00
(PID.TID 0000.0001) %MON forcing_qsw_min              =  -2.2673723790440E+01
(PID.TID 0000.0001) %MON forcing_qsw_mean             =  -7.5516559841549E-01
(PID.TID 0000.0001) %MON forcing_qsw_sd               =   2.3946038051327E+00
(PID.TID 0000.0001) %MON forcing_qsw_del2             =   7.7115860088814E-06
(PID.TID 0000.0001) %MON forcing_empmr_max            =   2.3008064329611E-04
(PID.TID 0000.0001) %MON forcing_empmr_min            =  -9.7120990263946E-04
(PID.TID 0000.0001) %MON forcing_empmr_mean           =   4.3294519822534E-05
(PID.TID 0000.0001) %MON forcing_empmr_sd             =   1.0531422684928E-04
(PID.TID 0000.0001) %MON forcing_empmr_del2           =   8.3810654762284E-10
(PID.TID 0000.0001) %MON forcing_fu_max               =   5.9441828951577E-01
(PID.TID 0000.0001) %MON forcing_fu_min               =  -1.8297092237783E-01
(PID.TID 0000.0001) %MON forcing_fu_mean              =   9.9683573011411E-02
(PID.TID 0000.0001) %MON forcing_fu_sd                =   1.3830258625434E-01
(PID.TID 0000.0001) %MON forcing_fu_del2              =   1.6929790464944E-07
(PID.TID 0000.0001) %MON forcing_fv_max               =   4.1575221439219E-01
(PID.TID 0000.0001) %MON forcing_fv_min               =  -4.7835938641756E-01
(PID.TID 0000.0001) %MON forcing_fv_mean              =   2.7214207247935E-02
(PID.TID 0000.0001) %MON forcing_fv_sd                =   1.5579030531427E-01
(PID.TID 0000.0001) %MON forcing_fv_del2              =   3.0658347054634E-07
(PID.TID 0000.0001) %MON trAdv_CFL_u_max              =   7.7704961649086E-02
(PID.TID 0000.0001) %MON trAdv_CFL_v_max              =   1.2148746768836E-01
(PID.TID 0000.0001) %MON trAdv_CFL_w_max              =   5.2132234995855E-01
(PID.TID 0000.0001) %MON advcfl_uvel_max              =   7.7704960591062E-02
(PID.TID 0000.0001) %MON advcfl_vvel_max              =   1.2152281585028E-01
(PID.TID 0000.0001) %MON advcfl_wvel_max              =   5.2286930055190E-01
(PID.TID 0000.0001) %MON advcfl_W_hf_max              =   5.2442545918449E-01
(PID.TID 0000.0001) %MON pe_b_mean                    =  -8.4381024047933E-05
(PID.TID 0000.0001) %MON ke_max                       =   1.6896634060261E+00
(PID.TID 0000.0001) %MON ke_mean                      =   2.5168295228323E-03
(PID.TID 0000.0001) %MON ke_vol                       =   4.5818637279720E+16
(PID.TID 0000.0001) %MON vort_r_min                   =  -4.2991534726840E-04
(PID.TID 0000.0001) %MON vort_r_max                   =   5.9973191245727E-04
(PID.TID 0000.0001) %MON vort_a_mean                  =   8.2147630071754E-05
(PID.TID 0000.0001) %MON vort_a_sd                    =   1.0122370445772E-05
(PID.TID 0000.0001) %MON vort_p_mean                  =   8.4848851610511E-05
(PID.TID 0000.0001) %MON vort_p_sd                    =   3.4985063596813E-05
(PID.TID 0000.0001) %MON surfExpan_theta_mean         =   2.3311085329613E-05
(PID.TID 0000.0001) %MON surfExpan_salt_mean          =  -3.1000020107260E-04
(PID.TID 0000.0001) // =======================================================
(PID.TID 0000.0001) // End MONITOR dynamic field statistics
(PID.TID 0000.0001) // =======================================================
(PID.TID 0000.0001) // =======================================================
(PID.TID 0000.0001) // Begin OBCS MONITOR field statistics
(PID.TID 0000.0001) // =======================================================
(PID.TID 0000.0001) %MON obc_N_vVel_max               =   6.9568554767849E-01
(PID.TID 0000.0001) %MON obc_N_vVel_min               =  -3.2199381926990E-01
(PID.TID 0000.0001) %MON obc_N_vVel_mean              =   1.3307490691962E-02
(PID.TID 0000.0001) %MON obc_N_vVel_sd                =   6.4696469699490E-02
(PID.TID 0000.0001) %MON obc_N_vVel_Int               =   1.9049785324164E+08
(PID.TID 0000.0001) %MON obc_S_vVel_max               =   1.9227748132589E+00
(PID.TID 0000.0001) %MON obc_S_vVel_min               =  -2.6207127723095E-01
(PID.TID 0000.0001) %MON obc_S_vVel_mean              =   2.7429399846448E-03
(PID.TID 0000.0001) %MON obc_S_vVel_sd                =   3.5810089513638E-02
(PID.TID 0000.0001) %MON obc_S_vVel_Int               =   8.3503046761390E+07
(PID.TID 0000.0001) %MON obc_N_theta_max              =   1.6390684840790E+01
(PID.TID 0000.0001) %MON obc_N_theta_min              =   1.8895908251163E+00
(PID.TID 0000.0001) %MON obc_N_theta_mean             =   5.1589657335888E+00
(PID.TID 0000.0001) %MON obc_N_theta_sd               =   3.4827153546990E+00
(PID.TID 0000.0001) %MON obc_S_theta_max              =   2.5544735811248E+01
(PID.TID 0000.0001) %MON obc_S_theta_min              =   1.4632964334612E+00
(PID.TID 0000.0001) %MON obc_S_theta_mean             =   5.4595561701622E+00
(PID.TID 0000.0001) %MON obc_S_theta_sd               =   5.3559292930331E+00
(PID.TID 0000.0001) %MON obc_N_salt_max               =   3.5910866831232E+01
(PID.TID 0000.0001) %MON obc_N_salt_min               =   3.3295025075312E+01
(PID.TID 0000.0001) %MON obc_N_salt_mean              =   3.5114563724377E+01
(PID.TID 0000.0001) %MON obc_N_salt_sd                =   3.0984909061059E-01
(PID.TID 0000.0001) %MON obc_S_salt_max               =   3.7318332861853E+01
(PID.TID 0000.0001) %MON obc_S_salt_min               =   3.4844694418258E+01
(PID.TID 0000.0001) %MON obc_S_salt_mean              =   3.5168372795001E+01
(PID.TID 0000.0001) %MON obc_S_salt_sd                =   4.5717040571680E-01
(PID.TID 0000.0001) // =======================================================
(PID.TID 0000.0001) // End OBCS MONITOR field statistics
(PID.TID 0000.0001) // =======================================================
(PID.TID 0000.0001) // =======================================================
(PID.TID 0000.0001) // Begin MONITOR EXF statistics
(PID.TID 0000.0001) // =======================================================
(PID.TID 0000.0001) %MON exf_tsnumber                 =                     2
(PID.TID 0000.0001) %MON exf_time_sec                 =   4.8000000000000E+02
(PID.TID 0000.0001) %MON exf_ustress_max              =   5.9108738358369E-01
(PID.TID 0000.0001) %MON exf_ustress_min              =  -1.8192356541972E-01
(PID.TID 0000.0001) %MON exf_ustress_mean             =   9.9294804332872E-02
(PID.TID 0000.0001) %MON exf_ustress_sd               =   1.3775371041885E-01
(PID.TID 0000.0001) %MON exf_ustress_del2             =   1.9416824263287E-07
(PID.TID 0000.0001) %MON exf_vstress_max              =   4.1462389950883E-01
(PID.TID 0000.0001) %MON exf_vstress_min              =  -4.7708610967151E-01
(PID.TID 0000.0001) %MON exf_vstress_mean             =   2.7365538707119E-02
(PID.TID 0000.0001) %MON exf_vstress_sd               =   1.5526133608710E-01
(PID.TID 0000.0001) %MON exf_vstress_del2             =   3.3011696335873E-07
(PID.TID 0000.0001) %MON exf_hflux_max                =   1.0708347797028E+03
(PID.TID 0000.0001) %MON exf_hflux_min                =  -1.3645400439095E+02
(PID.TID 0000.0001) %MON exf_hflux_mean               =   3.2486455656318E+02
(PID.TID 0000.0001) %MON exf_hflux_sd                 =   2.1324293012042E+02
(PID.TID 0000.0001) %MON exf_hflux_del2               =   8.7028617611972E-02
(PID.TID 0000.0001) %MON exf_sflux_max                =   2.2933716621181E-07
(PID.TID 0000.0001) %MON exf_sflux_min                =  -9.8445096412505E-07
(PID.TID 0000.0001) %MON exf_sflux_mean               =   4.3057392342272E-08
(PID.TID 0000.0001) %MON exf_sflux_sd                 =   1.0565970301835E-07
(PID.TID 0000.0001) %MON exf_sflux_del2               =   2.3716999629802E-11
(PID.TID 0000.0001) %MON exf_uwind_max                =   1.6004255884227E+01
(PID.TID 0000.0001) %MON exf_uwind_min                =  -1.0618974238267E+01
(PID.TID 0000.0001) %MON exf_uwind_mean               =   4.3764516728906E+00
(PID.TID 0000.0001) %MON exf_uwind_sd                 =   5.9340821436297E+00
(PID.TID 0000.0001) %MON exf_uwind_del2               =   1.6419243872398E-03
(PID.TID 0000.0001) %MON exf_vwind_max                =   1.5032771480161E+01
(PID.TID 0000.0001) %MON exf_vwind_min                =  -1.3202114128068E+01
(PID.TID 0000.0001) %MON exf_vwind_mean               =   1.7082769498806E+00
(PID.TID 0000.0001) %MON exf_vwind_sd                 =   7.4128475660326E+00
(PID.TID 0000.0001) %MON exf_vwind_del2               =   1.6937746904504E-03
(PID.TID 0000.0001) %MON exf_wspeed_max               =   1.8467326319445E+01
(PID.TID 0000.0001) %MON exf_wspeed_min               =   2.7410153206252E-02
(PID.TID 0000.0001) %MON exf_wspeed_mean              =   9.9666734934437E+00
(PID.TID 0000.0001) %MON exf_wspeed_sd                =   3.5917403556364E+00
(PID.TID 0000.0001) %MON exf_wspeed_del2              =   2.3589135148905E-03
(PID.TID 0000.0001) %MON exf_atemp_max                =   2.9779274795957E+02
(PID.TID 0000.0001) %MON exf_atemp_min                =   2.7426283835729E+02
(PID.TID 0000.0001) %MON exf_atemp_mean               =   2.8987764056426E+02
(PID.TID 0000.0001) %MON exf_atemp_sd                 =   4.3283369010815E+00
(PID.TID 0000.0001) %MON exf_atemp_del2               =   3.7040167378462E-03
(PID.TID 0000.0001) %MON exf_aqh_max                  =   1.4696383102622E-02
(PID.TID 0000.0001) %MON exf_aqh_min                  =   3.0546889351612E-03
(PID.TID 0000.0001) %MON exf_aqh_mean                 =   9.5877623016469E-03
(PID.TID 0000.0001) %MON exf_aqh_sd                   =   2.2740570134330E-03
(PID.TID 0000.0001) %MON exf_aqh_del2                 =   2.1311738572847E-06
(PID.TID 0000.0001) %MON exf_lwflux_max               =   1.5822213970738E+02
(PID.TID 0000.0001) %MON exf_lwflux_min               =   1.4021001233949E+00
(PID.TID 0000.0001) %MON exf_lwflux_mean              =   7.2794742980021E+01
(PID.TID 0000.0001) %MON exf_lwflux_sd                =   2.7817346076199E+01
(PID.TID 0000.0001) %MON exf_lwflux_del2              =   1.7294904285687E-02
(PID.TID 0000.0001) %MON exf_evap_max                 =   2.5111039706043E-07
(PID.TID 0000.0001) %MON exf_evap_min                 =  -4.2711008989632E-08
(PID.TID 0000.0001) %MON exf_evap_mean                =   7.9994367143215E-08
(PID.TID 0000.0001) %MON exf_evap_sd                  =   5.6394129097144E-08
(PID.TID 0000.0001) %MON exf_evap_del2                =   2.1676320576734E-11
(PID.TID 0000.0001) %MON exf_precip_max               =   9.8432422362057E-07
(PID.TID 0000.0001) %MON exf_precip_min               =   0.0000000000000E+00
(PID.TID 0000.0001) %MON exf_precip_mean              =   3.5348495228953E-08
(PID.TID 0000.0001) %MON exf_precip_sd                =   7.9006895622736E-08
(PID.TID 0000.0001) %MON exf_precip_del2              =   1.7450698046835E-11
(PID.TID 0000.0001) %MON exf_swflux_max               =   0.0000000000000E+00
(PID.TID 0000.0001) %MON exf_swflux_min               =  -2.1619131986234E+01
(PID.TID 0000.0001) %MON exf_swflux_mean              =  -7.2004161709384E-01
(PID.TID 0000.0001) %MON exf_swflux_sd                =   2.2832268839637E+00
(PID.TID 0000.0001) %MON exf_swflux_del2              =   4.9388970382612E-04
(PID.TID 0000.0001) %MON exf_swdown_max               =   2.4021257762482E+01
(PID.TID 0000.0001) %MON exf_swdown_min               =   0.0000000000000E+00
(PID.TID 0000.0001) %MON exf_swdown_mean              =   8.0004624121537E-01
(PID.TID 0000.0001) %MON exf_swdown_sd                =   2.5369187599597E+00
(PID.TID 0000.0001) %MON exf_swdown_del2              =   5.4876633758458E-04
(PID.TID 0000.0001) %MON exf_lwdown_max               =   4.0196545245311E+02
(PID.TID 0000.0001) %MON exf_lwdown_min               =   2.4870414881402E+02
(PID.TID 0000.0001) %MON exf_lwdown_mean              =   3.4205369811052E+02
(PID.TID 0000.0001) %MON exf_lwdown_sd                =   2.7526655924698E+01
(PID.TID 0000.0001) %MON exf_lwdown_del2              =   7.4678946286198E-02
(PID.TID 0000.0001) %MON exf_apressure_max            =   1.0299224584644E+05
(PID.TID 0000.0001) %MON exf_apressure_min            =   9.9658924340195E+04
(PID.TID 0000.0001) %MON exf_apressure_mean           =   1.0185423880019E+05
(PID.TID 0000.0001) %MON exf_apressure_sd             =   8.4021046263681E+02
(PID.TID 0000.0001) %MON exf_apressure_del2           =   2.2282482583295E+01
(PID.TID 0000.0001) %MON exf_runoff_max               =   4.4374798712073E-08
(PID.TID 0000.0001) %MON exf_runoff_min               =   0.0000000000000E+00
(PID.TID 0000.0001) %MON exf_runoff_mean              =   1.5884795719908E-09
(PID.TID 0000.0001) %MON exf_runoff_sd                =   5.3901959599983E-09
(PID.TID 0000.0001) %MON exf_runoff_del2              =   1.2741189756369E-12
(PID.TID 0000.0001) // =======================================================
(PID.TID 0000.0001) // End MONITOR EXF statistics
(PID.TID 0000.0001) // =======================================================
 cg2d: Sum(rhs),rhsMax =   2.00361346372482E+02  3.88075312511496E-02
(PID.TID 0000.0001)      cg2d_init_res =   3.21330219891306E+00
(PID.TID 0000.0001)      cg2d_iters(min,last) =      -1     320
(PID.TID 0000.0001)      cg2d_last_res =   6.87153593336009E-12
(PID.TID 0000.0001) // =======================================================
(PID.TID 0000.0001) // Begin MONITOR dynamic field statistics
(PID.TID 0000.0001) // =======================================================
(PID.TID 0000.0001) %MON time_tsnumber                =                     3
(PID.TID 0000.0001) %MON time_secondsf                =   7.2000000000000E+02
(PID.TID 0000.0001) %MON dynstat_eta_max              =   9.5532613176017E-01
(PID.TID 0000.0001) %MON dynstat_eta_min              =  -1.5283359642834E+00
(PID.TID 0000.0001) %MON dynstat_eta_mean             =  -6.8137085615732E-03
(PID.TID 0000.0001) %MON dynstat_eta_sd               =   1.2583600710437E-01
(PID.TID 0000.0001) %MON dynstat_eta_del2             =   2.9333882940301E-06
(PID.TID 0000.0001) %MON dynstat_uvel_max             =   1.2874454669498E+00
(PID.TID 0000.0001) %MON dynstat_uvel_min             =  -9.4421118897279E-01
(PID.TID 0000.0001) %MON dynstat_uvel_mean            =   4.1948909138391E-03
(PID.TID 0000.0001) %MON dynstat_uvel_sd              =   5.2356322322571E-02
(PID.TID 0000.0001) %MON dynstat_uvel_del2            =   4.6257020180643E-07
(PID.TID 0000.0001) %MON dynstat_vvel_max             =   1.9873820750718E+00
(PID.TID 0000.0001) %MON dynstat_vvel_min             =  -8.8361858640554E-01
(PID.TID 0000.0001) %MON dynstat_vvel_mean            =  -1.4746440731577E-03
(PID.TID 0000.0001) %MON dynstat_vvel_sd              =   4.8218320837176E-02
(PID.TID 0000.0001) %MON dynstat_vvel_del2            =   4.2451365813216E-07
(PID.TID 0000.0001) %MON dynstat_wvel_max             =   3.7263386638296E-02
(PID.TID 0000.0001) %MON dynstat_wvel_min             =  -3.2550302790318E-02
(PID.TID 0000.0001) %MON dynstat_wvel_mean            =  -5.5391214022800E-06
(PID.TID 0000.0001) %MON dynstat_wvel_sd              =   5.8953328414171E-04
(PID.TID 0000.0001) %MON dynstat_wvel_del2            =   8.9130432953752E-08
(PID.TID 0000.0001) %MON dynstat_theta_max            =   2.6140119090239E+01
(PID.TID 0000.0001) %MON dynstat_theta_min            =   1.4688638481456E+00
(PID.TID 0000.0001) %MON dynstat_theta_mean           =   5.5098521489498E+00
(PID.TID 0000.0001) %MON dynstat_theta_sd             =   4.7734364674039E+00
(PID.TID 0000.0001) %MON dynstat_theta_del2           =   4.0022968314268E-06
(PID.TID 0000.0001) %MON dynstat_salt_max             =   3.9180970652461E+01
(PID.TID 0000.0001) %MON dynstat_salt_min             =   3.3089992453928E+01
(PID.TID 0000.0001) %MON dynstat_salt_mean            =   3.5173370234814E+01
(PID.TID 0000.0001) %MON dynstat_salt_sd              =   3.7891344380706E-01
(PID.TID 0000.0001) %MON dynstat_salt_del2            =   4.9712472195508E-07
(PID.TID 0000.0001) %MON dynstat_sst_max              =   2.6133857203302E+01
(PID.TID 0000.0001) %MON dynstat_sst_min              =   4.0464815203447E+00
(PID.TID 0000.0001) %MON dynstat_sst_mean             =   1.9643557779899E+01
(PID.TID 0000.0001) %MON dynstat_sst_sd               =   3.6373452293183E+00
(PID.TID 0000.0001) %MON dynstat_sst_del2             =   1.9078382656137E-05
(PID.TID 0000.0001) %MON dynstat_sss_max              =   3.7335182109578E+01
(PID.TID 0000.0001) %MON dynstat_sss_min              =   3.3089992453928E+01
(PID.TID 0000.0001) %MON dynstat_sss_mean             =   3.5868173822436E+01
(PID.TID 0000.0001) %MON dynstat_sss_sd               =   4.8727952090772E-01
(PID.TID 0000.0001) %MON dynstat_sss_del2             =   4.9966409121627E-06
(PID.TID 0000.0001) %MON forcing_qnet_max             =   1.0871063170549E+03
(PID.TID 0000.0001) %MON forcing_qnet_min             =  -1.6753937459774E+02
(PID.TID 0000.0001) %MON forcing_qnet_mean            =   3.2931360781552E+02
(PID.TID 0000.0001) %MON forcing_qnet_sd              =   2.1900288132735E+02
(PID.TID 0000.0001) %MON forcing_qnet_del2            =   1.1923265122849E-03
(PID.TID 0000.0001) %MON forcing_qsw_max              =   0.0000000000000E+00
(PID.TID 0000.0001) %MON forcing_qsw_min              =  -2.1619131986234E+01
(PID.TID 0000.0001) %MON forcing_qsw_mean             =  -7.2004161709384E-01
(PID.TID 0000.0001) %MON forcing_qsw_sd               =   2.2832268839637E+00
(PID.TID 0000.0001) %MON forcing_qsw_del2             =   7.3529075898636E-06
(PID.TID 0000.0001) %MON forcing_empmr_max            =   2.2933716621181E-04
(PID.TID 0000.0001) %MON forcing_empmr_min            =  -9.8445096412505E-04
(PID.TID 0000.0001) %MON forcing_empmr_mean           =   4.3057392342272E-05
(PID.TID 0000.0001) %MON forcing_empmr_sd             =   1.0565970301835E-04
(PID.TID 0000.0001) %MON forcing_empmr_del2           =   8.4654017431525E-10
(PID.TID 0000.0001) %MON forcing_fu_max               =   5.9105651600636E-01
(PID.TID 0000.0001) %MON forcing_fu_min               =  -1.8192138967916E-01
(PID.TID 0000.0001) %MON forcing_fu_mean              =   9.9403080516621E-02
(PID.TID 0000.0001) %MON forcing_fu_sd                =   1.3778335652785E-01
(PID.TID 0000.0001) %MON forcing_fu_del2              =   1.7055237853367E-07
(PID.TID 0000.0001) %MON forcing_fv_max               =   4.1455685106900E-01
(PID.TID 0000.0001) %MON forcing_fv_min               =  -4.7708457889483E-01
(PID.TID 0000.0001) %MON forcing_fv_mean              =   2.7299772972145E-02
(PID.TID 0000.0001) %MON forcing_fv_sd                =   1.5527355024195E-01
(PID.TID 0000.0001) %MON forcing_fv_del2              =   3.0873023700175E-07
(PID.TID 0000.0001) %MON trAdv_CFL_u_max              =   7.8110298662526E-02
(PID.TID 0000.0001) %MON trAdv_CFL_v_max              =   1.2556957474416E-01
(PID.TID 0000.0001) %MON trAdv_CFL_w_max              =   5.0669949495385E-01
(PID.TID 0000.0001) %MON advcfl_uvel_max              =   7.8110297598984E-02
(PID.TID 0000.0001) %MON advcfl_vvel_max              =   1.2560611064161E-01
(PID.TID 0000.0001) %MON advcfl_wvel_max              =   5.0820305428605E-01
(PID.TID 0000.0001) %MON advcfl_W_hf_max              =   5.0971556337619E-01
(PID.TID 0000.0001) %MON pe_b_mean                    =  -1.4219968365729E-04
(PID.TID 0000.0001) %MON ke_max                       =   1.7543149950814E+00
(PID.TID 0000.0001) %MON ke_mean                      =   2.5241466660705E-03
(PID.TID 0000.0001) %MON ke_vol                       =   4.5818637279720E+16
(PID.TID 0000.0001) %MON vort_r_min                   =  -4.6755466551176E-04
(PID.TID 0000.0001) %MON vort_r_max                   =   6.0236056847647E-04
(PID.TID 0000.0001) %MON vort_a_mean                  =   8.2147629334876E-05
(PID.TID 0000.0001) %MON vort_a_sd                    =   1.0123545044885E-05
(PID.TID 0000.0001) %MON vort_p_mean                  =   8.4848850849403E-05
(PID.TID 0000.0001) %MON vort_p_sd                    =   3.4982599672873E-05
(PID.TID 0000.0001) %MON surfExpan_theta_mean         =  -1.1942131245499E-05
(PID.TID 0000.0001) %MON surfExpan_salt_mean          =  -3.8316961473597E-04
(PID.TID 0000.0001) // =======================================================
(PID.TID 0000.0001) // End MONITOR dynamic field statistics
(PID.TID 0000.0001) // =======================================================
(PID.TID 0000.0001) // =======================================================
(PID.TID 0000.0001) // Begin OBCS MONITOR field statistics
(PID.TID 0000.0001) // =======================================================
(PID.TID 0000.0001) %MON obc_N_vVel_max               =   6.9561473952318E-01
(PID.TID 0000.0001) %MON obc_N_vVel_min               =  -3.2210984061472E-01
(PID.TID 0000.0001) %MON obc_N_vVel_mean              =   1.3386422536623E-02
(PID.TID 0000.0001) %MON obc_N_vVel_sd                =   6.4693635573125E-02
(PID.TID 0000.0001) %MON obc_N_vVel_Int               =   1.9162776926476E+08
(PID.TID 0000.0001) %MON obc_S_vVel_max               =   1.9873820750718E+00
(PID.TID 0000.0001) %MON obc_S_vVel_min               =  -2.6220596923867E-01
(PID.TID 0000.0001) %MON obc_S_vVel_mean              =   2.0408797773561E-03
(PID.TID 0000.0001) %MON obc_S_vVel_sd                =   3.5842793074871E-02
(PID.TID 0000.0001) %MON obc_S_vVel_Int               =   6.2130298306548E+07
(PID.TID 0000.0001) %MON obc_N_theta_max              =   1.6390596738603E+01
(PID.TID 0000.0001) %MON obc_N_theta_min              =   1.8895908741817E+00
(PID.TID 0000.0001) %MON obc_N_theta_mean             =   5.1589583494387E+00
(PID.TID 0000.0001) %MON obc_N_theta_sd               =   3.4827060621667E+00
(PID.TID 0000.0001) %MON obc_S_theta_max              =   2.5544633062468E+01
(PID.TID 0000.0001) %MON obc_S_theta_min              =   1.4632968297484E+00
(PID.TID 0000.0001) %MON obc_S_theta_mean             =   5.4595553651376E+00
(PID.TID 0000.0001) %MON obc_S_theta_sd               =   5.3559254217424E+00
(PID.TID 0000.0001) %MON obc_N_salt_max               =   3.5910866422869E+01
(PID.TID 0000.0001) %MON obc_N_salt_min               =   3.3295030577945E+01
(PID.TID 0000.0001) %MON obc_N_salt_mean              =   3.5114563428390E+01
(PID.TID 0000.0001) %MON obc_N_salt_sd                =   3.0984897118963E-01
(PID.TID 0000.0001) %MON obc_S_salt_max               =   3.7318325977469E+01
(PID.TID 0000.0001) %MON obc_S_salt_min               =   3.4844694470478E+01
(PID.TID 0000.0001) %MON obc_S_salt_mean              =   3.5168372723084E+01
(PID.TID 0000.0001) %MON obc_S_salt_sd                =   4.5717005460235E-01
(PID.TID 0000.0001) // =======================================================
(PID.TID 0000.0001) // End OBCS MONITOR field statistics
(PID.TID 0000.0001) // =======================================================
(PID.TID 0000.0001) // =======================================================
(PID.TID 0000.0001) // Begin MONITOR EXF statistics
(PID.TID 0000.0001) // =======================================================
(PID.TID 0000.0001) %MON exf_tsnumber                 =                     3
(PID.TID 0000.0001) %MON exf_time_sec                 =   7.2000000000000E+02
(PID.TID 0000.0001) %MON exf_ustress_max              =   5.8804610905897E-01
(PID.TID 0000.0001) %MON exf_ustress_min              =  -1.8110958251457E-01
(PID.TID 0000.0001) %MON exf_ustress_mean             =   9.9048710500363E-02
(PID.TID 0000.0001) %MON exf_ustress_sd               =   1.3729761484332E-01
(PID.TID 0000.0001) %MON exf_ustress_del2             =   1.9337353834572E-07
(PID.TID 0000.0001) %MON exf_vstress_max              =   4.1353482660949E-01
(PID.TID 0000.0001) %MON exf_vstress_min              =  -4.7599709614338E-01
(PID.TID 0000.0001) %MON exf_vstress_mean             =   2.7458361221471E-02
(PID.TID 0000.0001) %MON exf_vstress_sd               =   1.5481137491752E-01
(PID.TID 0000.0001) %MON exf_vstress_del2             =   3.2936287062483E-07
(PID.TID 0000.0001) %MON exf_hflux_max                =   1.0686241823088E+03
(PID.TID 0000.0001) %MON exf_hflux_min                =  -1.3550577333745E+02
(PID.TID 0000.0001) %MON exf_hflux_mean               =   3.2446581565357E+02
(PID.TID 0000.0001) %MON exf_hflux_sd                 =   2.1280198330690E+02
(PID.TID 0000.0001) %MON exf_hflux_del2               =   8.6884907776858E-02
(PID.TID 0000.0001) %MON exf_sflux_max                =   2.2870295216815E-07
(PID.TID 0000.0001) %MON exf_sflux_min                =  -9.9767699063758E-07
(PID.TID 0000.0001) %MON exf_sflux_mean               =   4.2838329816397E-08
(PID.TID 0000.0001) %MON exf_sflux_sd                 =   1.0604204530088E-07
(PID.TID 0000.0001) %MON exf_sflux_del2               =   2.3756882693430E-11
(PID.TID 0000.0001) %MON exf_uwind_max                =   1.5943715187246E+01
(PID.TID 0000.0001) %MON exf_uwind_min                =  -1.0594317949385E+01
(PID.TID 0000.0001) %MON exf_uwind_mean               =   4.3744132796220E+00
(PID.TID 0000.0001) %MON exf_uwind_sd                 =   5.9282263898343E+00
(PID.TID 0000.0001) %MON exf_uwind_del2               =   1.6408212186400E-03
(PID.TID 0000.0001) %MON exf_vwind_max                =   1.5007137672010E+01
(PID.TID 0000.0001) %MON exf_vwind_min                =  -1.3181870538952E+01
(PID.TID 0000.0001) %MON exf_vwind_mean               =   1.7139510420494E+00
(PID.TID 0000.0001) %MON exf_vwind_sd                 =   7.4032972839275E+00
(PID.TID 0000.0001) %MON exf_vwind_del2               =   1.6919057898682E-03
(PID.TID 0000.0001) %MON exf_wspeed_max               =   1.8441323593862E+01
(PID.TID 0000.0001) %MON exf_wspeed_min               =   2.2455887210296E-02
(PID.TID 0000.0001) %MON exf_wspeed_mean              =   9.9581315000747E+00
(PID.TID 0000.0001) %MON exf_wspeed_sd                =   3.5862815765122E+00
(PID.TID 0000.0001) %MON exf_wspeed_del2              =   2.3568050541802E-03
(PID.TID 0000.0001) %MON exf_atemp_max                =   2.9779229393173E+02
(PID.TID 0000.0001) %MON exf_atemp_min                =   2.7427725624276E+02
(PID.TID 0000.0001) %MON exf_atemp_mean               =   2.8987771407738E+02
(PID.TID 0000.0001) %MON exf_atemp_sd                 =   4.3248398579078E+00
(PID.TID 0000.0001) %MON exf_atemp_del2               =   3.7039869728931E-03
(PID.TID 0000.0001) %MON exf_aqh_max                  =   1.4717987761025E-02
(PID.TID 0000.0001) %MON exf_aqh_min                  =   3.0626016377233E-03
(PID.TID 0000.0001) %MON exf_aqh_mean                 =   9.5873791191216E-03
(PID.TID 0000.0001) %MON exf_aqh_sd                   =   2.2715817283856E-03
(PID.TID 0000.0001) %MON exf_aqh_del2                 =   2.1310311697305E-06
(PID.TID 0000.0001) %MON exf_lwflux_max               =   1.5800823186648E+02
(PID.TID 0000.0001) %MON exf_lwflux_min               =   1.1951136740478E+00
(PID.TID 0000.0001) %MON exf_lwflux_mean              =   7.2783865182734E+01
(PID.TID 0000.0001) %MON exf_lwflux_sd                =   2.7826796416183E+01
(PID.TID 0000.0001) %MON exf_lwflux_del2              =   1.7292021952155E-02
(PID.TID 0000.0001) %MON exf_evap_max                 =   2.5058752026819E-07
(PID.TID 0000.0001) %MON exf_evap_min                 =  -4.2512463312141E-08
(PID.TID 0000.0001) %MON exf_evap_mean                =   7.9870162797554E-08
(PID.TID 0000.0001) %MON exf_evap_sd                  =   5.6265248481633E-08
(PID.TID 0000.0001) %MON exf_evap_del2                =   2.1634945831970E-11
(PID.TID 0000.0001) %MON exf_precip_max               =   9.9743451171246E-07
(PID.TID 0000.0001) %MON exf_precip_min               =   0.0000000000000E+00
(PID.TID 0000.0001) %MON exf_precip_mean              =   3.5443353409166E-08
(PID.TID 0000.0001) %MON exf_precip_sd                =   7.9474005611492E-08
(PID.TID 0000.0001) %MON exf_precip_del2              =   1.7537841875081E-11
(PID.TID 0000.0001) %MON exf_swflux_max               =   0.0000000000000E+00
(PID.TID 0000.0001) %MON exf_swflux_min               =  -2.0564540182027E+01
(PID.TID 0000.0001) %MON exf_swflux_mean              =  -6.8491763577218E-01
(PID.TID 0000.0001) %MON exf_swflux_sd                =   2.1718499627948E+00
(PID.TID 0000.0001) %MON exf_swflux_del2              =   4.6979752315168E-04
(PID.TID 0000.0001) %MON exf_swdown_max               =   2.2849489091142E+01
(PID.TID 0000.0001) %MON exf_swdown_min               =   0.0000000000000E+00
(PID.TID 0000.0001) %MON exf_swdown_mean              =   7.6101959530243E-01
(PID.TID 0000.0001) %MON exf_swdown_sd                =   2.4131666253275E+00
(PID.TID 0000.0001) %MON exf_swdown_del2              =   5.2199724794631E-04
(PID.TID 0000.0001) %MON exf_lwdown_max               =   4.0206744577272E+02
(PID.TID 0000.0001) %MON exf_lwdown_min               =   2.4875068355178E+02
(PID.TID 0000.0001) %MON exf_lwdown_mean              =   3.4205467619770E+02
(PID.TID 0000.0001) %MON exf_lwdown_sd                =   2.7520541403765E+01
(PID.TID 0000.0001) %MON exf_lwdown_del2              =   7.4679420132808E-02
(PID.TID 0000.0001) %MON exf_apressure_max            =   1.0298961137480E+05
(PID.TID 0000.0001) %MON exf_apressure_min            =   9.9657803756613E+04
(PID.TID 0000.0001) %MON exf_apressure_mean           =   1.0185260509244E+05
(PID.TID 0000.0001) %MON exf_apressure_sd             =   8.3962560671272E+02
(PID.TID 0000.0001) %MON exf_apressure_del2           =   2.2282134523874E+01
(PID.TID 0000.0001) %MON exf_runoff_max               =   4.4374798712073E-08
(PID.TID 0000.0001) %MON exf_runoff_min               =   0.0000000000000E+00
(PID.TID 0000.0001) %MON exf_runoff_mean              =   1.5884795719908E-09
(PID.TID 0000.0001) %MON exf_runoff_sd                =   5.3901959599983E-09
(PID.TID 0000.0001) %MON exf_runoff_del2              =   1.2741189756369E-12
(PID.TID 0000.0001) // =======================================================
(PID.TID 0000.0001) // End MONITOR EXF statistics
(PID.TID 0000.0001) // =======================================================
 cg2d: Sum(rhs),rhsMax =   2.95181185606380E+02  3.59128070686351E-02
(PID.TID 0000.0001)      cg2d_init_res =   2.14931041541136E+00
(PID.TID 0000.0001)      cg2d_iters(min,last) =      -1     318
(PID.TID 0000.0001)      cg2d_last_res =   6.77479594997730E-12
(PID.TID 0000.0001) // =======================================================
(PID.TID 0000.0001) // Begin MONITOR dynamic field statistics
(PID.TID 0000.0001) // =======================================================
(PID.TID 0000.0001) %MON time_tsnumber                =                     4
(PID.TID 0000.0001) %MON time_secondsf                =   9.6000000000000E+02
(PID.TID 0000.0001) %MON dynstat_eta_max              =   1.0178948275905E+00
(PID.TID 0000.0001) %MON dynstat_eta_min              =  -1.4922253670776E+00
(PID.TID 0000.0001) %MON dynstat_eta_mean             =  -1.0038256420190E-02
(PID.TID 0000.0001) %MON dynstat_eta_sd               =   1.4965855579086E-01
(PID.TID 0000.0001) %MON dynstat_eta_del2             =   2.7437581393641E-06
(PID.TID 0000.0001) %MON dynstat_uvel_max             =   1.2920652324146E+00
(PID.TID 0000.0001) %MON dynstat_uvel_min             =  -1.0241782387008E+00
(PID.TID 0000.0001) %MON dynstat_uvel_mean            =   4.2219411885263E-03
(PID.TID 0000.0001) %MON dynstat_uvel_sd              =   5.2407149299804E-02
(PID.TID 0000.0001) %MON dynstat_uvel_del2            =   4.6427196059689E-07
(PID.TID 0000.0001) %MON dynstat_vvel_max             =   2.0516105064972E+00
(PID.TID 0000.0001) %MON dynstat_vvel_min             =  -8.8521028802486E-01
(PID.TID 0000.0001) %MON dynstat_vvel_mean            =  -1.8551896159195E-03
(PID.TID 0000.0001) %MON dynstat_vvel_sd              =   4.8308985986738E-02
(PID.TID 0000.0001) %MON dynstat_vvel_del2            =   4.2444356397120E-07
(PID.TID 0000.0001) %MON dynstat_wvel_max             =   3.7315231867847E-02
(PID.TID 0000.0001) %MON dynstat_wvel_min             =  -3.1699757982911E-02
(PID.TID 0000.0001) %MON dynstat_wvel_mean            =  -6.7548297683258E-06
(PID.TID 0000.0001) %MON dynstat_wvel_sd              =   5.8866543007199E-04
(PID.TID 0000.0001) %MON dynstat_wvel_del2            =   8.5555761039735E-08
(PID.TID 0000.0001) %MON dynstat_theta_max            =   2.6139421094627E+01
(PID.TID 0000.0001) %MON dynstat_theta_min            =   1.4688639483669E+00
(PID.TID 0000.0001) %MON dynstat_theta_mean           =   5.5098453587619E+00
(PID.TID 0000.0001) %MON dynstat_theta_sd             =   4.7734069314168E+00
(PID.TID 0000.0001) %MON dynstat_theta_del2           =   4.0042937605013E-06
(PID.TID 0000.0001) %MON dynstat_salt_max             =   3.9178848186660E+01
(PID.TID 0000.0001) %MON dynstat_salt_min             =   3.3090137057598E+01
(PID.TID 0000.0001) %MON dynstat_salt_mean            =   3.5173369135201E+01
(PID.TID 0000.0001) %MON dynstat_salt_sd              =   3.7891281076705E-01
(PID.TID 0000.0001) %MON dynstat_salt_del2            =   4.9971782681690E-07
(PID.TID 0000.0001) %MON dynstat_sst_max              =   2.6132060163329E+01
(PID.TID 0000.0001) %MON dynstat_sst_min              =   4.0316114126438E+00
(PID.TID 0000.0001) %MON dynstat_sst_mean             =   1.9642034358992E+01
(PID.TID 0000.0001) %MON dynstat_sst_sd               =   3.6370632010374E+00
(PID.TID 0000.0001) %MON dynstat_sst_del2             =   1.9077676264386E-05
(PID.TID 0000.0001) %MON dynstat_sss_max              =   3.7335205314584E+01
(PID.TID 0000.0001) %MON dynstat_sss_min              =   3.3090137057598E+01
(PID.TID 0000.0001) %MON dynstat_sss_mean             =   3.5868232031729E+01
(PID.TID 0000.0001) %MON dynstat_sss_sd               =   4.8730375518473E-01
(PID.TID 0000.0001) %MON dynstat_sss_del2             =   4.9845364800955E-06
(PID.TID 0000.0001) %MON forcing_qnet_max             =   1.0848335778591E+03
(PID.TID 0000.0001) %MON forcing_qnet_min             =  -1.6932452561389E+02
(PID.TID 0000.0001) %MON forcing_qnet_mean            =   3.2889695053850E+02
(PID.TID 0000.0001) %MON forcing_qnet_sd              =   2.1856811498723E+02
(PID.TID 0000.0001) %MON forcing_qnet_del2            =   1.1896023451376E-03
(PID.TID 0000.0001) %MON forcing_qsw_max              =   0.0000000000000E+00
(PID.TID 0000.0001) %MON forcing_qsw_min              =  -2.0564540182027E+01
(PID.TID 0000.0001) %MON forcing_qsw_mean             =  -6.8491763577218E-01
(PID.TID 0000.0001) %MON forcing_qsw_sd               =   2.1718499627948E+00
(PID.TID 0000.0001) %MON forcing_qsw_del2             =   6.9942291708459E-06
(PID.TID 0000.0001) %MON forcing_empmr_max            =   2.2870295216815E-04
(PID.TID 0000.0001) %MON forcing_empmr_min            =  -9.9767699063758E-04
(PID.TID 0000.0001) %MON forcing_empmr_mean           =   4.2838329816397E-05
(PID.TID 0000.0001) %MON forcing_empmr_sd             =   1.0604204530088E-04
(PID.TID 0000.0001) %MON forcing_empmr_del2           =   8.5575575622059E-10
(PID.TID 0000.0001) %MON forcing_fu_max               =   5.8801558097573E-01
(PID.TID 0000.0001) %MON forcing_fu_min               =  -1.8110703784759E-01
(PID.TID 0000.0001) %MON forcing_fu_mean              =   9.9156620562588E-02
(PID.TID 0000.0001) %MON forcing_fu_sd                =   1.3732707274623E-01
(PID.TID 0000.0001) %MON forcing_fu_del2              =   1.6965375077998E-07
(PID.TID 0000.0001) %MON forcing_fv_max               =   4.1344486365126E-01
(PID.TID 0000.0001) %MON forcing_fv_min               =  -4.7599686377017E-01
(PID.TID 0000.0001) %MON forcing_fv_mean              =   2.7392507923743E-02
(PID.TID 0000.0001) %MON forcing_fv_sd                =   1.5482320544603E-01
(PID.TID 0000.0001) %MON forcing_fv_del2              =   3.0855727222491E-07
(PID.TID 0000.0001) %MON trAdv_CFL_u_max              =   7.8390583357662E-02
(PID.TID 0000.0001) %MON trAdv_CFL_v_max              =   1.2962774600461E-01
(PID.TID 0000.0001) %MON trAdv_CFL_w_max              =   4.8992479773457E-01
(PID.TID 0000.0001) %MON advcfl_uvel_max              =   7.8390582290303E-02
(PID.TID 0000.0001) %MON advcfl_vvel_max              =   1.2966546267318E-01
(PID.TID 0000.0001) %MON advcfl_wvel_max              =   4.9137858051717E-01
(PID.TID 0000.0001) %MON advcfl_W_hf_max              =   4.9284101676871E-01
(PID.TID 0000.0001) %MON pe_b_mean                    =  -2.1139672719652E-04
(PID.TID 0000.0001) %MON ke_max                       =   1.8786090204957E+00
(PID.TID 0000.0001) %MON ke_mean                      =   2.5318830941979E-03
(PID.TID 0000.0001) %MON ke_vol                       =   4.5818637279720E+16
(PID.TID 0000.0001) %MON vort_r_min                   =  -4.8766110906400E-04
(PID.TID 0000.0001) %MON vort_r_max                   =   5.7532140850694E-04
(PID.TID 0000.0001) %MON vort_a_mean                  =   8.2147628585905E-05
(PID.TID 0000.0001) %MON vort_a_sd                    =   1.0125120968150E-05
(PID.TID 0000.0001) %MON vort_p_mean                  =   8.4848850075804E-05
(PID.TID 0000.0001) %MON vort_p_sd                    =   3.4980765606907E-05
(PID.TID 0000.0001) %MON surfExpan_theta_mean         =  -5.2841239827541E-05
(PID.TID 0000.0001) %MON surfExpan_salt_mean          =  -4.5626258576952E-04
(PID.TID 0000.0001) // =======================================================
(PID.TID 0000.0001) // End MONITOR dynamic field statistics
(PID.TID 0000.0001) // =======================================================
(PID.TID 0000.0001) // =======================================================
(PID.TID 0000.0001) // Begin OBCS MONITOR field statistics
(PID.TID 0000.0001) // =======================================================
(PID.TID 0000.0001) %MON obc_N_vVel_max               =   6.9553192130751E-01
(PID.TID 0000.0001) %MON obc_N_vVel_min               =  -3.2224932600846E-01
(PID.TID 0000.0001) %MON obc_N_vVel_mean              =   1.3451067297277E-02
(PID.TID 0000.0001) %MON obc_N_vVel_sd                =   6.4688179853585E-02
(PID.TID 0000.0001) %MON obc_N_vVel_Int               =   1.9255316447359E+08
(PID.TID 0000.0001) %MON obc_S_vVel_max               =   2.0516105064972E+00
(PID.TID 0000.0001) %MON obc_S_vVel_min               =  -2.6233395479551E-01
(PID.TID 0000.0001) %MON obc_S_vVel_mean              =   1.3372914318189E-03
(PID.TID 0000.0001) %MON obc_S_vVel_sd                =   3.5879578143183E-02
(PID.TID 0000.0001) %MON obc_S_vVel_Int               =   4.0711028892322E+07
(PID.TID 0000.0001) %MON obc_N_theta_max              =   1.6390508636415E+01
(PID.TID 0000.0001) %MON obc_N_theta_min              =   1.8895909232471E+00
(PID.TID 0000.0001) %MON obc_N_theta_mean             =   5.1589509652887E+00
(PID.TID 0000.0001) %MON obc_N_theta_sd               =   3.4826967698724E+00
(PID.TID 0000.0001) %MON obc_S_theta_max              =   2.5544530313689E+01
(PID.TID 0000.0001) %MON obc_S_theta_min              =   1.4632972260357E+00
(PID.TID 0000.0001) %MON obc_S_theta_mean             =   5.4595545601130E+00
(PID.TID 0000.0001) %MON obc_S_theta_sd               =   5.3559215504875E+00
(PID.TID 0000.0001) %MON obc_N_salt_max               =   3.5910866014505E+01
(PID.TID 0000.0001) %MON obc_N_salt_min               =   3.3295036080578E+01
(PID.TID 0000.0001) %MON obc_N_salt_mean              =   3.5114563132403E+01
(PID.TID 0000.0001) %MON obc_N_salt_sd                =   3.0984885181404E-01
(PID.TID 0000.0001) %MON obc_S_salt_max               =   3.7318319093085E+01
(PID.TID 0000.0001) %MON obc_S_salt_min               =   3.4844694522698E+01
(PID.TID 0000.0001) %MON obc_S_salt_mean              =   3.5168372651167E+01
(PID.TID 0000.0001) %MON obc_S_salt_sd                =   4.5716970351760E-01
(PID.TID 0000.0001) // =======================================================
(PID.TID 0000.0001) // End OBCS MONITOR field statistics
(PID.TID 0000.0001) // =======================================================
(PID.TID 0000.0001) // =======================================================
(PID.TID 0000.0001) // Begin MONITOR EXF statistics
(PID.TID 0000.0001) // =======================================================
(PID.TID 0000.0001) %MON exf_tsnumber                 =                     4
(PID.TID 0000.0001) %MON exf_time_sec                 =   9.6000000000000E+02
(PID.TID 0000.0001) %MON exf_ustress_max              =   5.8525814189977E-01
(PID.TID 0000.0001) %MON exf_ustress_min              =  -1.8040293533261E-01
(PID.TID 0000.0001) %MON exf_ustress_mean             =   9.8826670276857E-02
(PID.TID 0000.0001) %MON exf_ustress_sd               =   1.3688852583545E-01
(PID.TID 0000.0001) %MON exf_ustress_del2             =   1.9253279402451E-07
(PID.TID 0000.0001) %MON exf_vstress_max              =   4.1257954822708E-01
(PID.TID 0000.0001) %MON exf_vstress_min              =  -4.7511416632047E-01
(PID.TID 0000.0001) %MON exf_vstress_mean             =   2.7557740721119E-02
(PID.TID 0000.0001) %MON exf_vstress_sd               =   1.5441258855395E-01
(PID.TID 0000.0001) %MON exf_vstress_del2             =   3.2915550023179E-07
(PID.TID 0000.0001) %MON exf_hflux_max                =   1.0667607390824E+03
(PID.TID 0000.0001) %MON exf_hflux_min                =  -1.3460171584567E+02
(PID.TID 0000.0001) %MON exf_hflux_mean               =   3.2411147207243E+02
(PID.TID 0000.0001) %MON exf_hflux_sd                 =   2.1240335396163E+02
(PID.TID 0000.0001) %MON exf_hflux_del2               =   8.6755919467280E-02
(PID.TID 0000.0001) %MON exf_sflux_max                =   2.2814398770462E-07
(PID.TID 0000.0001) %MON exf_sflux_min                =  -1.0108913741620E-06
(PID.TID 0000.0001) %MON exf_sflux_mean               =   4.2632027559689E-08
(PID.TID 0000.0001) %MON exf_sflux_sd                 =   1.0645779061542E-07
(PID.TID 0000.0001) %MON exf_sflux_del2               =   2.3804606139002E-11
(PID.TID 0000.0001) %MON exf_uwind_max                =   1.5885267449592E+01
(PID.TID 0000.0001) %MON exf_uwind_min                =  -1.0571156431434E+01
(PID.TID 0000.0001) %MON exf_uwind_mean               =   4.3726646633816E+00
(PID.TID 0000.0001) %MON exf_uwind_sd                 =   5.9230000162201E+00
(PID.TID 0000.0001) %MON exf_uwind_del2               =   1.6398699719746E-03
(PID.TID 0000.0001) %MON exf_vwind_max                =   1.4982173344222E+01
(PID.TID 0000.0001) %MON exf_vwind_min                =  -1.3162823752325E+01
(PID.TID 0000.0001) %MON exf_vwind_mean               =   1.7197014890584E+00
(PID.TID 0000.0001) %MON exf_vwind_sd                 =   7.3945430269275E+00
(PID.TID 0000.0001) %MON exf_vwind_del2               =   1.6902221866239E-03
(PID.TID 0000.0001) %MON exf_wspeed_max               =   1.8418536241444E+01
(PID.TID 0000.0001) %MON exf_wspeed_min               =   6.3144610271178E-02
(PID.TID 0000.0001) %MON exf_wspeed_mean              =   9.9504779599313E+00
(PID.TID 0000.0001) %MON exf_wspeed_sd                =   3.5814457427137E+00
(PID.TID 0000.0001) %MON exf_wspeed_del2              =   2.3549353334004E-03
(PID.TID 0000.0001) %MON exf_atemp_max                =   2.9779183990389E+02
(PID.TID 0000.0001) %MON exf_atemp_min                =   2.7428838340740E+02
(PID.TID 0000.0001) %MON exf_atemp_mean               =   2.8987778759051E+02
(PID.TID 0000.0001) %MON exf_atemp_sd                 =   4.3213762771205E+00
(PID.TID 0000.0001) %MON exf_atemp_del2               =   3.7039593888595E-03
(PID.TID 0000.0001) %MON exf_aqh_max                  =   1.4739592419428E-02
(PID.TID 0000.0001) %MON exf_aqh_min                  =   3.0705143402853E-03
(PID.TID 0000.0001) %MON exf_aqh_mean                 =   9.5869959365963E-03
(PID.TID 0000.0001) %MON exf_aqh_sd                   =   2.2691534296254E-03
(PID.TID 0000.0001) %MON exf_aqh_del2                 =   2.1308911299642E-06
(PID.TID 0000.0001) %MON exf_lwflux_max               =   1.5779521131191E+02
(PID.TID 0000.0001) %MON exf_lwflux_min               =   9.8810829140317E-01
(PID.TID 0000.0001) %MON exf_lwflux_mean              =   7.2774442222900E+01
(PID.TID 0000.0001) %MON exf_lwflux_sd                =   2.7839811884691E+01
(PID.TID 0000.0001) %MON exf_lwflux_del2              =   1.7289745613779E-02
(PID.TID 0000.0001) %MON exf_evap_max                 =   2.5015301831963E-07
(PID.TID 0000.0001) %MON exf_evap_min                 =  -4.2338330255491E-08
(PID.TID 0000.0001) %MON exf_evap_mean                =   7.9758718721059E-08
(PID.TID 0000.0001) %MON exf_evap_sd                  =   5.6147828212206E-08
(PID.TID 0000.0001) %MON exf_evap_del2                =   2.1597616435857E-11
(PID.TID 0000.0001) %MON exf_precip_max               =   1.0105447998043E-06
(PID.TID 0000.0001) %MON exf_precip_min               =   0.0000000000000E+00
(PID.TID 0000.0001) %MON exf_precip_mean              =   3.5538211589379E-08
(PID.TID 0000.0001) %MON exf_precip_sd                =   7.9974710923049E-08
(PID.TID 0000.0001) %MON exf_precip_del2              =   1.7631376723747E-11
(PID.TID 0000.0001) %MON exf_swflux_max               =   0.0000000000000E+00
(PID.TID 0000.0001) %MON exf_swflux_min               =  -1.9509948377821E+01
(PID.TID 0000.0001) %MON exf_swflux_mean              =  -6.4979365445054E-01
(PID.TID 0000.0001) %MON exf_swflux_sd                =   2.0604730416258E+00
(PID.TID 0000.0001) %MON exf_swflux_del2              =   4.4570534247723E-04
(PID.TID 0000.0001) %MON exf_swdown_max               =   2.1677720419801E+01
(PID.TID 0000.0001) %MON exf_swdown_min               =   0.0000000000000E+00
(PID.TID 0000.0001) %MON exf_swdown_mean              =   7.2199294938948E-01
(PID.TID 0000.0001) %MON exf_swdown_sd                =   2.2894144906954E+00
(PID.TID 0000.0001) %MON exf_swdown_del2              =   4.9522815830804E-04
(PID.TID 0000.0001) %MON exf_lwdown_max               =   4.0216943909233E+02
(PID.TID 0000.0001) %MON exf_lwdown_min               =   2.4879721828954E+02
(PID.TID 0000.0001) %MON exf_lwdown_mean              =   3.4205565428488E+02
(PID.TID 0000.0001) %MON exf_lwdown_sd                =   2.7517616747387E+01
(PID.TID 0000.0001) %MON exf_lwdown_del2              =   7.4679956539186E-02
(PID.TID 0000.0001) %MON exf_apressure_max            =   1.0298704972532E+05
(PID.TID 0000.0001) %MON exf_apressure_min            =   9.9656683173032E+04
(PID.TID 0000.0001) %MON exf_apressure_mean           =   1.0185097138469E+05
(PID.TID 0000.0001) %MON exf_apressure_sd             =   8.3904579351201E+02
(PID.TID 0000.0001) %MON exf_apressure_del2           =   2.2281786474784E+01
(PID.TID 0000.0001) %MON exf_runoff_max               =   4.4374798712073E-08
(PID.TID 0000.0001) %MON exf_runoff_min               =   0.0000000000000E+00
(PID.TID 0000.0001) %MON exf_runoff_mean              =   1.5884795719908E-09
(PID.TID 0000.0001) %MON exf_runoff_sd                =   5.3901959599983E-09
(PID.TID 0000.0001) %MON exf_runoff_del2              =   1.2741189756369E-12
(PID.TID 0000.0001) // =======================================================
(PID.TID 0000.0001) // End MONITOR EXF statistics
(PID.TID 0000.0001) // =======================================================
 cg2d: Sum(rhs),rhsMax =   4.03838863826268E+02  3.86656736321819E-02
(PID.TID 0000.0001)      cg2d_init_res =   1.83898999309962E+00
(PID.TID 0000.0001)      cg2d_iters(min,last) =      -1     317
(PID.TID 0000.0001)      cg2d_last_res =   6.53633296966287E-12
(PID.TID 0000.0001) // =======================================================
(PID.TID 0000.0001) // Begin MONITOR dynamic field statistics
(PID.TID 0000.0001) // =======================================================
(PID.TID 0000.0001) %MON time_tsnumber                =                     5
(PID.TID 0000.0001) %MON time_secondsf                =   1.2000000000000E+03
(PID.TID 0000.0001) %MON dynstat_eta_max              =   1.0389756522693E+00
(PID.TID 0000.0001) %MON dynstat_eta_min              =  -1.4232110625780E+00
(PID.TID 0000.0001) %MON dynstat_eta_mean             =  -1.3733389068137E-02
(PID.TID 0000.0001) %MON dynstat_eta_sd               =   1.6916310540634E-01
(PID.TID 0000.0001) %MON dynstat_eta_del2             =   2.4997989575289E-06
(PID.TID 0000.0001) %MON dynstat_uvel_max             =   1.2951941490895E+00
(PID.TID 0000.0001) %MON dynstat_uvel_min             =  -9.8552969099845E-01
(PID.TID 0000.0001) %MON dynstat_uvel_mean            =   4.2170764481058E-03
(PID.TID 0000.0001) %MON dynstat_uvel_sd              =   5.2433111324806E-02
(PID.TID 0000.0001) %MON dynstat_uvel_del2            =   4.6757496657832E-07
(PID.TID 0000.0001) %MON dynstat_vvel_max             =   2.1154440145923E+00
(PID.TID 0000.0001) %MON dynstat_vvel_min             =  -8.8652229905433E-01
(PID.TID 0000.0001) %MON dynstat_vvel_mean            =  -2.2099628006227E-03
(PID.TID 0000.0001) %MON dynstat_vvel_sd              =   4.8431688763179E-02
(PID.TID 0000.0001) %MON dynstat_vvel_del2            =   4.2751160779391E-07
(PID.TID 0000.0001) %MON dynstat_wvel_max             =   3.7089086690673E-02
(PID.TID 0000.0001) %MON dynstat_wvel_min             =  -3.1012899707970E-02
(PID.TID 0000.0001) %MON dynstat_wvel_mean            =  -7.9621677630854E-06
(PID.TID 0000.0001) %MON dynstat_wvel_sd              =   5.8716703452233E-04
(PID.TID 0000.0001) %MON dynstat_wvel_del2            =   8.0846034787181E-08
(PID.TID 0000.0001) %MON dynstat_theta_max            =   2.6138683795974E+01
(PID.TID 0000.0001) %MON dynstat_theta_min            =   1.4688640569044E+00
(PID.TID 0000.0001) %MON dynstat_theta_mean           =   5.5098404108574E+00
(PID.TID 0000.0001) %MON dynstat_theta_sd             =   4.7733802163240E+00
(PID.TID 0000.0001) %MON dynstat_theta_del2           =   4.0081497670003E-06
(PID.TID 0000.0001) %MON dynstat_salt_max             =   3.9176400373087E+01
(PID.TID 0000.0001) %MON dynstat_salt_min             =   3.3090283115330E+01
(PID.TID 0000.0001) %MON dynstat_salt_mean            =   3.5173368231066E+01
(PID.TID 0000.0001) %MON dynstat_salt_sd              =   3.7891266246354E-01
(PID.TID 0000.0001) %MON dynstat_salt_del2            =   5.0302707475238E-07
(PID.TID 0000.0001) %MON dynstat_sst_max              =   2.6130409643744E+01
(PID.TID 0000.0001) %MON dynstat_sst_min              =   4.0166890477328E+00
(PID.TID 0000.0001) %MON dynstat_sst_mean             =   1.9640697080351E+01
(PID.TID 0000.0001) %MON dynstat_sst_sd               =   3.6368268296129E+00
(PID.TID 0000.0001) %MON dynstat_sst_del2             =   1.9086906460873E-05
(PID.TID 0000.0001) %MON dynstat_sss_max              =   3.7335231918293E+01
(PID.TID 0000.0001) %MON dynstat_sss_min              =   3.3090283115330E+01
(PID.TID 0000.0001) %MON dynstat_sss_mean             =   3.5868284992112E+01
(PID.TID 0000.0001) %MON dynstat_sss_sd               =   4.8732551939433E-01
(PID.TID 0000.0001) %MON dynstat_sss_del2             =   4.9735688954537E-06
(PID.TID 0000.0001) %MON forcing_qnet_max             =   1.0829149657708E+03
(PID.TID 0000.0001) %MON forcing_qnet_min             =  -1.7110740951090E+02
(PID.TID 0000.0001) %MON forcing_qnet_mean            =   3.2852586672763E+02
(PID.TID 0000.0001) %MON forcing_qnet_sd              =   2.1817664564283E+02
(PID.TID 0000.0001) %MON forcing_qnet_del2            =   1.1876549824513E-03
(PID.TID 0000.0001) %MON forcing_qsw_max              =   0.0000000000000E+00
(PID.TID 0000.0001) %MON forcing_qsw_min              =  -1.9509948377821E+01
(PID.TID 0000.0001) %MON forcing_qsw_mean             =  -6.4979365445054E-01
(PID.TID 0000.0001) %MON forcing_qsw_sd               =   2.0604730416258E+00
(PID.TID 0000.0001) %MON forcing_qsw_del2             =   6.6355507518281E-06
(PID.TID 0000.0001) %MON forcing_empmr_max            =   2.2814398770462E-04
(PID.TID 0000.0001) %MON forcing_empmr_min            =  -1.0108913741620E-03
(PID.TID 0000.0001) %MON forcing_empmr_mean           =   4.2632027559689E-05
(PID.TID 0000.0001) %MON forcing_empmr_sd             =   1.0645779061542E-04
(PID.TID 0000.0001) %MON forcing_empmr_del2           =   8.6574435487049E-10
(PID.TID 0000.0001) %MON forcing_fu_max               =   5.8523066013354E-01
(PID.TID 0000.0001) %MON forcing_fu_min               =  -1.8040047132319E-01
(PID.TID 0000.0001) %MON forcing_fu_mean              =   9.8934244843618E-02
(PID.TID 0000.0001) %MON forcing_fu_sd                =   1.3691781251697E-01
(PID.TID 0000.0001) %MON forcing_fu_del2              =   1.6876827832758E-07
(PID.TID 0000.0001) %MON forcing_fv_max               =   4.1245542900912E-01
(PID.TID 0000.0001) %MON forcing_fv_min               =  -4.7511137295228E-01
(PID.TID 0000.0001) %MON forcing_fv_mean              =   2.7491797842277E-02
(PID.TID 0000.0001) %MON forcing_fv_sd                =   1.5442400490087E-01
(PID.TID 0000.0001) %MON forcing_fv_del2              =   3.0827307372012E-07
(PID.TID 0000.0001) %MON trAdv_CFL_u_max              =   7.8580417119353E-02
(PID.TID 0000.0001) %MON trAdv_CFL_v_max              =   1.3366096466269E-01
(PID.TID 0000.0001) %MON trAdv_CFL_w_max              =   4.6482919169882E-01
(PID.TID 0000.0001) %MON advcfl_uvel_max              =   7.8580416049409E-02
(PID.TID 0000.0001) %MON advcfl_vvel_max              =   1.3369985484216E-01
(PID.TID 0000.0001) %MON advcfl_wvel_max              =   4.6620850680771E-01
(PID.TID 0000.0001) %MON advcfl_W_hf_max              =   4.6759603212559E-01
(PID.TID 0000.0001) %MON pe_b_mean                    =  -2.9255213518936E-04
(PID.TID 0000.0001) %MON ke_max                       =   2.0247543493381E+00
(PID.TID 0000.0001) %MON ke_mean                      =   2.5398318254126E-03
(PID.TID 0000.0001) %MON ke_vol                       =   4.5818637279720E+16
(PID.TID 0000.0001) %MON vort_r_min                   =  -4.9875624179312E-04
(PID.TID 0000.0001) %MON vort_r_max                   =   5.4969707185840E-04
(PID.TID 0000.0001) %MON vort_a_mean                  =   8.2147627825490E-05
(PID.TID 0000.0001) %MON vort_a_sd                    =   1.0127407409344E-05
(PID.TID 0000.0001) %MON vort_p_mean                  =   8.4848849290384E-05
(PID.TID 0000.0001) %MON vort_p_sd                    =   3.4979877271255E-05
(PID.TID 0000.0001) %MON surfExpan_theta_mean         =  -9.4711814675227E-05
(PID.TID 0000.0001) %MON surfExpan_salt_mean          =  -5.2861850804845E-04
(PID.TID 0000.0001) // =======================================================
(PID.TID 0000.0001) // End MONITOR dynamic field statistics
(PID.TID 0000.0001) // =======================================================
(PID.TID 0000.0001) // =======================================================
(PID.TID 0000.0001) // Begin OBCS MONITOR field statistics
(PID.TID 0000.0001) // =======================================================
(PID.TID 0000.0001) %MON obc_N_vVel_max               =   6.9543718136846E-01
(PID.TID 0000.0001) %MON obc_N_vVel_min               =  -3.2241212391701E-01
(PID.TID 0000.0001) %MON obc_N_vVel_mean              =   1.3501340616437E-02
(PID.TID 0000.0001) %MON obc_N_vVel_sd                =   6.4680224712309E-02
(PID.TID 0000.0001) %MON obc_N_vVel_Int               =   1.9327283128359E+08
(PID.TID 0000.0001) %MON obc_S_vVel_max               =   2.1154440145923E+00
(PID.TID 0000.0001) %MON obc_S_vVel_min               =  -2.6245505327119E-01
(PID.TID 0000.0001) %MON obc_S_vVel_mean              =   6.3302524519791E-04
(PID.TID 0000.0001) %MON obc_S_vVel_sd                =   3.5920573633926E-02
(PID.TID 0000.0001) %MON obc_S_vVel_Int               =   1.9271124029987E+07
(PID.TID 0000.0001) %MON obc_N_theta_max              =   1.6390420534228E+01
(PID.TID 0000.0001) %MON obc_N_theta_min              =   1.8895909723125E+00
(PID.TID 0000.0001) %MON obc_N_theta_mean             =   5.1589435811386E+00
(PID.TID 0000.0001) %MON obc_N_theta_sd               =   3.4826874778161E+00
(PID.TID 0000.0001) %MON obc_S_theta_max              =   2.5544427564909E+01
(PID.TID 0000.0001) %MON obc_S_theta_min              =   1.4632976223230E+00
(PID.TID 0000.0001) %MON obc_S_theta_mean             =   5.4595537550885E+00
(PID.TID 0000.0001) %MON obc_S_theta_sd               =   5.3559176792685E+00
(PID.TID 0000.0001) %MON obc_N_salt_max               =   3.5910865606142E+01
(PID.TID 0000.0001) %MON obc_N_salt_min               =   3.3295041583212E+01
(PID.TID 0000.0001) %MON obc_N_salt_mean              =   3.5114562836417E+01
(PID.TID 0000.0001) %MON obc_N_salt_sd                =   3.0984873248609E-01
(PID.TID 0000.0001) %MON obc_S_salt_max               =   3.7318312208701E+01
(PID.TID 0000.0001) %MON obc_S_salt_min               =   3.4844694574919E+01
(PID.TID 0000.0001) %MON obc_S_salt_mean              =   3.5168372579251E+01
(PID.TID 0000.0001) %MON obc_S_salt_sd                =   4.5716935243014E-01
(PID.TID 0000.0001) // =======================================================
(PID.TID 0000.0001) // End OBCS MONITOR field statistics
(PID.TID 0000.0001) // =======================================================
(PID.TID 0000.0001) // =======================================================
(PID.TID 0000.0001) // Begin MONITOR EXF statistics
(PID.TID 0000.0001) // =======================================================
(PID.TID 0000.0001) %MON exf_tsnumber                 =                     5
(PID.TID 0000.0001) %MON exf_time_sec                 =   1.2000000000000E+03
(PID.TID 0000.0001) %MON exf_ustress_max              =   5.8267911043044E-01
(PID.TID 0000.0001) %MON exf_ustress_min              =  -1.7974571769627E-01
(PID.TID 0000.0001) %MON exf_ustress_mean             =   9.8622666468030E-02
(PID.TID 0000.0001) %MON exf_ustress_sd               =   1.3651698063930E-01
(PID.TID 0000.0001) %MON exf_ustress_del2             =   1.9244126663386E-07
(PID.TID 0000.0001) %MON exf_vstress_max              =   4.1174214328655E-01
(PID.TID 0000.0001) %MON exf_vstress_min              =  -4.7443590375320E-01
(PID.TID 0000.0001) %MON exf_vstress_mean             =   2.7662926492521E-02
(PID.TID 0000.0001) %MON exf_vstress_sd               =   1.5405522944046E-01
(PID.TID 0000.0001) %MON exf_vstress_del2             =   3.3070101348164E-07
(PID.TID 0000.0001) %MON exf_hflux_max                =   1.0651048802930E+03
(PID.TID 0000.0001) %MON exf_hflux_min                =  -1.3376099382692E+02
(PID.TID 0000.0001) %MON exf_hflux_mean               =   3.2379092862073E+02
(PID.TID 0000.0001) %MON exf_hflux_sd                 =   2.1203634571335E+02
(PID.TID 0000.0001) %MON exf_hflux_del2               =   8.6637840930696E-02
(PID.TID 0000.0001) %MON exf_sflux_max                =   2.2763836885137E-07
(PID.TID 0000.0001) %MON exf_sflux_min                =  -1.0241025729376E-06
(PID.TID 0000.0001) %MON exf_sflux_mean               =   4.2435442435503E-08
(PID.TID 0000.0001) %MON exf_sflux_sd                 =   1.0690500996246E-07
(PID.TID 0000.0001) %MON exf_sflux_del2               =   2.3859468257917E-11
(PID.TID 0000.0001) %MON exf_uwind_max                =   1.5827611096528E+01
(PID.TID 0000.0001) %MON exf_uwind_min                =  -1.0549089394398E+01
(PID.TID 0000.0001) %MON exf_uwind_mean               =   4.3711085720322E+00
(PID.TID 0000.0001) %MON exf_uwind_sd                 =   5.9182838143425E+00
(PID.TID 0000.0001) %MON exf_uwind_del2               =   1.6390364662176E-03
(PID.TID 0000.0001) %MON exf_vwind_max                =   1.4957033265949E+01
(PID.TID 0000.0001) %MON exf_vwind_min                =  -1.3144946887761E+01
(PID.TID 0000.0001) %MON exf_vwind_mean               =   1.7255118871191E+00
(PID.TID 0000.0001) %MON exf_vwind_sd                 =   7.3864531410096E+00
(PID.TID 0000.0001) %MON exf_vwind_del2               =   1.6886938477833E-03
(PID.TID 0000.0001) %MON exf_wspeed_max               =   1.8398357426394E+01
(PID.TID 0000.0001) %MON exf_wspeed_min               =   1.3171528160847E-02
(PID.TID 0000.0001) %MON exf_wspeed_mean              =   9.9435425872925E+00
(PID.TID 0000.0001) %MON exf_wspeed_sd                =   3.5771099434070E+00
(PID.TID 0000.0001) %MON exf_wspeed_del2              =   2.3532590301759E-03
(PID.TID 0000.0001) %MON exf_atemp_max                =   2.9779138587605E+02
(PID.TID 0000.0001) %MON exf_atemp_min                =   2.7429951057204E+02
(PID.TID 0000.0001) %MON exf_atemp_mean               =   2.8987786110363E+02
(PID.TID 0000.0001) %MON exf_atemp_sd                 =   4.3179462392438E+00
(PID.TID 0000.0001) %MON exf_atemp_del2               =   3.7039339857940E-03
(PID.TID 0000.0001) %MON exf_aqh_max                  =   1.4761197077831E-02
(PID.TID 0000.0001) %MON exf_aqh_min                  =   3.0783340453316E-03
(PID.TID 0000.0001) %MON exf_aqh_mean                 =   9.5866127540710E-03
(PID.TID 0000.0001) %MON exf_aqh_sd                   =   2.2667722681556E-03
(PID.TID 0000.0001) %MON exf_aqh_del2                 =   2.1307537385078E-06
(PID.TID 0000.0001) %MON exf_lwflux_max               =   1.5758281272845E+02
(PID.TID 0000.0001) %MON exf_lwflux_min               =   7.8108302137563E-01
(PID.TID 0000.0001) %MON exf_lwflux_mean              =   7.2766057073502E+01
(PID.TID 0000.0001) %MON exf_lwflux_sd                =   2.7856188649105E+01
(PID.TID 0000.0001) %MON exf_lwflux_del2              =   1.7287971539669E-02
(PID.TID 0000.0001) %MON exf_evap_max                 =   2.4977133446981E-07
(PID.TID 0000.0001) %MON exf_evap_min                 =  -4.2181908684042E-08
(PID.TID 0000.0001) %MON exf_evap_mean                =   7.9656991777086E-08
(PID.TID 0000.0001) %MON exf_evap_sd                  =   5.6039055102865E-08
(PID.TID 0000.0001) %MON exf_evap_del2                =   2.1563369377336E-11
(PID.TID 0000.0001) %MON exf_precip_max               =   1.0236550878962E-06
(PID.TID 0000.0001) %MON exf_precip_min               =   0.0000000000000E+00
(PID.TID 0000.0001) %MON exf_precip_mean              =   3.5633069769592E-08
(PID.TID 0000.0001) %MON exf_precip_sd                =   8.0508384742282E-08
(PID.TID 0000.0001) %MON exf_precip_del2              =   1.7731201452237E-11
(PID.TID 0000.0001) %MON exf_swflux_max               =   0.0000000000000E+00
(PID.TID 0000.0001) %MON exf_swflux_min               =  -1.8455356573614E+01
(PID.TID 0000.0001) %MON exf_swflux_mean              =  -6.1466967312888E-01
(PID.TID 0000.0001) %MON exf_swflux_sd                =   1.9490961204569E+00
(PID.TID 0000.0001) %MON exf_swflux_del2              =   4.2161316180279E-04
(PID.TID 0000.0001) %MON exf_swdown_max               =   2.0505951748460E+01
(PID.TID 0000.0001) %MON exf_swdown_min               =   0.0000000000000E+00
(PID.TID 0000.0001) %MON exf_swdown_mean              =   6.8296630347654E-01
(PID.TID 0000.0001) %MON exf_swdown_sd                =   2.1656623560632E+00
(PID.TID 0000.0001) %MON exf_swdown_del2              =   4.6845906866976E-04
(PID.TID 0000.0001) %MON exf_lwdown_max               =   4.0227143241195E+02
(PID.TID 0000.0001) %MON exf_lwdown_min               =   2.4884375302731E+02
(PID.TID 0000.0001) %MON exf_lwdown_mean              =   3.4205663237206E+02
(PID.TID 0000.0001) %MON exf_lwdown_sd                =   2.7517882972642E+01
(PID.TID 0000.0001) %MON exf_lwdown_del2              =   7.4680555503986E-02
(PID.TID 0000.0001) %MON exf_apressure_max            =   1.0298452448691E+05
(PID.TID 0000.0001) %MON exf_apressure_min            =   9.9655545919102E+04
(PID.TID 0000.0001) %MON exf_apressure_mean           =   1.0184933767694E+05
(PID.TID 0000.0001) %MON exf_apressure_sd             =   8.3847103349599E+02
(PID.TID 0000.0001) %MON exf_apressure_del2           =   2.2281438436026E+01
(PID.TID 0000.0001) %MON exf_runoff_max               =   4.4374798712073E-08
(PID.TID 0000.0001) %MON exf_runoff_min               =   0.0000000000000E+00
(PID.TID 0000.0001) %MON exf_runoff_mean              =   1.5884795719908E-09
(PID.TID 0000.0001) %MON exf_runoff_sd                =   5.3901959599983E-09
(PID.TID 0000.0001) %MON exf_runoff_del2              =   1.2741189756369E-12
(PID.TID 0000.0001) // =======================================================
(PID.TID 0000.0001) // End MONITOR EXF statistics
(PID.TID 0000.0001) // =======================================================
 cg2d: Sum(rhs),rhsMax =   5.26202007567546E+02  4.85347534559690E-02
(PID.TID 0000.0001)      cg2d_init_res =   1.60764799393365E+00
(PID.TID 0000.0001)      cg2d_iters(min,last) =      -1     316
(PID.TID 0000.0001)      cg2d_last_res =   6.86053855708373E-12
(PID.TID 0000.0001) // =======================================================
(PID.TID 0000.0001) // Begin MONITOR dynamic field statistics
(PID.TID 0000.0001) // =======================================================
(PID.TID 0000.0001) %MON time_tsnumber                =                     6
(PID.TID 0000.0001) %MON time_secondsf                =   1.4400000000000E+03
(PID.TID 0000.0001) %MON dynstat_eta_max              =   1.0336749324875E+00
(PID.TID 0000.0001) %MON dynstat_eta_min              =  -1.3333569043252E+00
(PID.TID 0000.0001) %MON dynstat_eta_mean             =  -1.7894604867621E-02
(PID.TID 0000.0001) %MON dynstat_eta_sd               =   1.8569100129923E-01
(PID.TID 0000.0001) %MON dynstat_eta_del2             =   2.3813689208222E-06
(PID.TID 0000.0001) %MON dynstat_uvel_max             =   1.2969389805361E+00
(PID.TID 0000.0001) %MON dynstat_uvel_min             =  -8.9192551907724E-01
(PID.TID 0000.0001) %MON dynstat_uvel_mean            =   4.1860449988669E-03
(PID.TID 0000.0001) %MON dynstat_uvel_sd              =   5.2436988301709E-02
(PID.TID 0000.0001) %MON dynstat_uvel_del2            =   4.7278400404046E-07
(PID.TID 0000.0001) %MON dynstat_vvel_max             =   2.1788666012208E+00
(PID.TID 0000.0001) %MON dynstat_vvel_min             =  -8.8787616068319E-01
(PID.TID 0000.0001) %MON dynstat_vvel_mean            =  -2.5430344014475E-03
(PID.TID 0000.0001) %MON dynstat_vvel_sd              =   4.8578204064691E-02
(PID.TID 0000.0001) %MON dynstat_vvel_del2            =   4.3293112084590E-07
(PID.TID 0000.0001) %MON dynstat_wvel_max             =   3.6719204661817E-02
(PID.TID 0000.0001) %MON dynstat_wvel_min             =  -3.0076557677269E-02
(PID.TID 0000.0001) %MON dynstat_wvel_mean            =  -9.1596774144785E-06
(PID.TID 0000.0001) %MON dynstat_wvel_sd              =   5.8711788521126E-04
(PID.TID 0000.0001) %MON dynstat_wvel_del2            =   7.6836344777898E-08
(PID.TID 0000.0001) %MON dynstat_theta_max            =   2.6138103889608E+01
(PID.TID 0000.0001) %MON dynstat_theta_min            =   1.4688641735196E+00
(PID.TID 0000.0001) %MON dynstat_theta_mean           =   5.5098373396574E+00
(PID.TID 0000.0001) %MON dynstat_theta_sd             =   4.7733562976148E+00
(PID.TID 0000.0001) %MON dynstat_theta_del2           =   4.0123592995952E-06
(PID.TID 0000.0001) %MON dynstat_salt_max             =   3.9173637603294E+01
(PID.TID 0000.0001) %MON dynstat_salt_min             =   3.3090428639143E+01
(PID.TID 0000.0001) %MON dynstat_salt_mean            =   3.5173367513057E+01
(PID.TID 0000.0001) %MON dynstat_salt_sd              =   3.7891290559847E-01
(PID.TID 0000.0001) %MON dynstat_salt_del2            =   5.0673283676371E-07
(PID.TID 0000.0001) %MON dynstat_sst_max              =   2.6128874169046E+01
(PID.TID 0000.0001) %MON dynstat_sst_min              =   4.0016323608490E+00
(PID.TID 0000.0001) %MON dynstat_sst_mean             =   1.9639499346385E+01
(PID.TID 0000.0001) %MON dynstat_sst_sd               =   3.6366241179657E+00
(PID.TID 0000.0001) %MON dynstat_sst_del2             =   1.9101199486220E-05
(PID.TID 0000.0001) %MON dynstat_sss_max              =   3.7335261879032E+01
(PID.TID 0000.0001) %MON dynstat_sss_min              =   3.3090428639143E+01
(PID.TID 0000.0001) %MON dynstat_sss_mean             =   3.5868333513994E+01
(PID.TID 0000.0001) %MON dynstat_sss_sd               =   4.8734549466011E-01
(PID.TID 0000.0001) %MON dynstat_sss_del2             =   4.9635422644248E-06
(PID.TID 0000.0001) %MON forcing_qnet_max             =   1.0812081459792E+03
(PID.TID 0000.0001) %MON forcing_qnet_min             =  -1.7291442217008E+02
(PID.TID 0000.0001) %MON forcing_qnet_mean            =   3.2818947551641E+02
(PID.TID 0000.0001) %MON forcing_qnet_sd              =   2.1781754692567E+02
(PID.TID 0000.0001) %MON forcing_qnet_del2            =   1.1853825511497E-03
(PID.TID 0000.0001) %MON forcing_qsw_max              =   0.0000000000000E+00
(PID.TID 0000.0001) %MON forcing_qsw_min              =  -1.8455356573614E+01
(PID.TID 0000.0001) %MON forcing_qsw_mean             =  -6.1466967312888E-01
(PID.TID 0000.0001) %MON forcing_qsw_sd               =   1.9490961204569E+00
(PID.TID 0000.0001) %MON forcing_qsw_del2             =   6.2768723328104E-06
(PID.TID 0000.0001) %MON forcing_empmr_max            =   2.2763836885137E-04
(PID.TID 0000.0001) %MON forcing_empmr_min            =  -1.0241025729376E-03
(PID.TID 0000.0001) %MON forcing_empmr_mean           =   4.2435442435503E-05
(PID.TID 0000.0001) %MON forcing_empmr_sd             =   1.0690500996246E-04
(PID.TID 0000.0001) %MON forcing_empmr_del2           =   8.7666189251480E-10
(PID.TID 0000.0001) %MON forcing_fu_max               =   5.8265410612118E-01
(PID.TID 0000.0001) %MON forcing_fu_min               =  -1.7974483632971E-01
(PID.TID 0000.0001) %MON forcing_fu_mean              =   9.8729932632313E-02
(PID.TID 0000.0001) %MON forcing_fu_sd                =   1.3654610475796E-01
(PID.TID 0000.0001) %MON forcing_fu_del2              =   1.6827627203125E-07
(PID.TID 0000.0001) %MON forcing_fv_max               =   4.1158194235007E-01
(PID.TID 0000.0001) %MON forcing_fv_min               =  -4.7442908580030E-01
(PID.TID 0000.0001) %MON forcing_fv_mean              =   2.7596891152054E-02
(PID.TID 0000.0001) %MON forcing_fv_sd                =   1.5406621114813E-01
(PID.TID 0000.0001) %MON forcing_fv_del2              =   3.0876416076214E-07
(PID.TID 0000.0001) %MON trAdv_CFL_u_max              =   7.8686277374335E-02
(PID.TID 0000.0001) %MON trAdv_CFL_v_max              =   1.3766821990164E-01
(PID.TID 0000.0001) %MON trAdv_CFL_w_max              =   4.7417698887038E-01
(PID.TID 0000.0001) %MON advcfl_uvel_max              =   7.8686276302951E-02
(PID.TID 0000.0001) %MON advcfl_vvel_max              =   1.3770827603764E-01
(PID.TID 0000.0001) %MON advcfl_wvel_max              =   4.7050119825898E-01
(PID.TID 0000.0001) %MON advcfl_W_hf_max              =   4.7417698887038E-01
(PID.TID 0000.0001) %MON pe_b_mean                    =  -3.8556747165742E-04
(PID.TID 0000.0001) %MON ke_max                       =   2.1624458800477E+00
(PID.TID 0000.0001) %MON ke_mean                      =   2.5477572447478E-03
(PID.TID 0000.0001) %MON ke_vol                       =   4.5818637279720E+16
(PID.TID 0000.0001) %MON vort_r_min                   =  -5.0534763334640E-04
(PID.TID 0000.0001) %MON vort_r_max                   =   5.4434261547905E-04
(PID.TID 0000.0001) %MON vort_a_mean                  =   8.2147627054294E-05
(PID.TID 0000.0001) %MON vort_a_sd                    =   1.0130241634862E-05
(PID.TID 0000.0001) %MON vort_p_mean                  =   8.4848848493829E-05
(PID.TID 0000.0001) %MON vort_p_sd                    =   3.4979872998719E-05
(PID.TID 0000.0001) %MON surfExpan_theta_mean         =  -1.3706258133955E-04
(PID.TID 0000.0001) %MON surfExpan_salt_mean          =  -6.0015510550832E-04
(PID.TID 0000.0001) // =======================================================
(PID.TID 0000.0001) // End MONITOR dynamic field statistics
(PID.TID 0000.0001) // =======================================================
(PID.TID 0000.0001) // =======================================================
(PID.TID 0000.0001) // Begin OBCS MONITOR field statistics
(PID.TID 0000.0001) // =======================================================
(PID.TID 0000.0001) %MON obc_N_vVel_max               =   6.9533062238007E-01
(PID.TID 0000.0001) %MON obc_N_vVel_min               =  -3.2259805496536E-01
(PID.TID 0000.0001) %MON obc_N_vVel_mean              =   1.3537174950139E-02
(PID.TID 0000.0001) %MON obc_N_vVel_sd                =   6.4669900488856E-02
(PID.TID 0000.0001) %MON obc_N_vVel_Int               =   1.9378580279720E+08
(PID.TID 0000.0001) %MON obc_S_vVel_max               =   2.1788666012208E+00
(PID.TID 0000.0001) %MON obc_S_vVel_min               =  -2.6256909347755E-01
(PID.TID 0000.0001) %MON obc_S_vVel_mean              =  -7.1067361303625E-05
(PID.TID 0000.0001) %MON obc_S_vVel_sd                =   3.5965892379268E-02
(PID.TID 0000.0001) %MON obc_S_vVel_Int               =  -2.1634965501856E+06
(PID.TID 0000.0001) %MON obc_N_theta_max              =   1.6390332432041E+01
(PID.TID 0000.0001) %MON obc_N_theta_min              =   1.8895910213779E+00
(PID.TID 0000.0001) %MON obc_N_theta_mean             =   5.1589361969886E+00
(PID.TID 0000.0001) %MON obc_N_theta_sd               =   3.4826781859977E+00
(PID.TID 0000.0001) %MON obc_S_theta_max              =   2.5544324816130E+01
(PID.TID 0000.0001) %MON obc_S_theta_min              =   1.4632980186102E+00
(PID.TID 0000.0001) %MON obc_S_theta_mean             =   5.4595529500639E+00
(PID.TID 0000.0001) %MON obc_S_theta_sd               =   5.3559138080854E+00
(PID.TID 0000.0001) %MON obc_N_salt_max               =   3.5910865197779E+01
(PID.TID 0000.0001) %MON obc_N_salt_min               =   3.3295047085845E+01
(PID.TID 0000.0001) %MON obc_N_salt_mean              =   3.5114562540430E+01
(PID.TID 0000.0001) %MON obc_N_salt_sd                =   3.0984861318096E-01
(PID.TID 0000.0001) %MON obc_S_salt_max               =   3.7318305324317E+01
(PID.TID 0000.0001) %MON obc_S_salt_min               =   3.4844694627139E+01
(PID.TID 0000.0001) %MON obc_S_salt_mean              =   3.5168372507334E+01
(PID.TID 0000.0001) %MON obc_S_salt_sd                =   4.5716900135870E-01
(PID.TID 0000.0001) // =======================================================
(PID.TID 0000.0001) // End OBCS MONITOR field statistics
(PID.TID 0000.0001) // =======================================================
(PID.TID 0000.0001) // =======================================================
(PID.TID 0000.0001) // Begin MONITOR EXF statistics
(PID.TID 0000.0001) // =======================================================
(PID.TID 0000.0001) %MON exf_tsnumber                 =                     6
(PID.TID 0000.0001) %MON exf_time_sec                 =   1.4400000000000E+03
(PID.TID 0000.0001) %MON exf_ustress_max              =   5.8026580884045E-01
(PID.TID 0000.0001) %MON exf_ustress_min              =  -1.7911677227064E-01
(PID.TID 0000.0001) %MON exf_ustress_mean             =   9.8432973483863E-02
(PID.TID 0000.0001) %MON exf_ustress_sd               =   1.3617699624346E-01
(PID.TID 0000.0001) %MON exf_ustress_del2             =   1.9274182399966E-07
(PID.TID 0000.0001) %MON exf_vstress_max              =   4.1096990421427E-01
(PID.TID 0000.0001) %MON exf_vstress_min              =  -4.7393331348815E-01
(PID.TID 0000.0001) %MON exf_vstress_mean             =   2.7773213558511E-02
(PID.TID 0000.0001) %MON exf_vstress_sd               =   1.5373274671479E-01
(PID.TID 0000.0001) %MON exf_vstress_del2             =   3.3318004905938E-07
(PID.TID 0000.0001) %MON exf_hflux_max                =   1.0635721132752E+03
(PID.TID 0000.0001) %MON exf_hflux_min                =  -1.3294749326349E+02
(PID.TID 0000.0001) %MON exf_hflux_mean               =   3.2349730860738E+02
(PID.TID 0000.0001) %MON exf_hflux_sd                 =   2.1169459586169E+02
(PID.TID 0000.0001) %MON exf_hflux_del2               =   8.6528452698253E-02
(PID.TID 0000.0001) %MON exf_sflux_max                =   2.2716871078797E-07
(PID.TID 0000.0001) %MON exf_sflux_min                =  -1.0373228386123E-06
(PID.TID 0000.0001) %MON exf_sflux_mean               =   4.2246654979387E-08
(PID.TID 0000.0001) %MON exf_sflux_sd                 =   1.0738237641532E-07
(PID.TID 0000.0001) %MON exf_sflux_del2               =   2.3920982279183E-11
(PID.TID 0000.0001) %MON exf_uwind_max                =   1.5771090128307E+01
(PID.TID 0000.0001) %MON exf_uwind_min                =  -1.0529061178112E+01
(PID.TID 0000.0001) %MON exf_uwind_mean               =   4.3696879416740E+00
(PID.TID 0000.0001) %MON exf_uwind_sd                 =   5.9139982151410E+00
(PID.TID 0000.0001) %MON exf_uwind_del2               =   1.6383013229431E-03
(PID.TID 0000.0001) %MON exf_vwind_max                =   1.4931532730618E+01
(PID.TID 0000.0001) %MON exf_vwind_min                =  -1.3128567688633E+01
(PID.TID 0000.0001) %MON exf_vwind_mean               =   1.7313678575647E+00
(PID.TID 0000.0001) %MON exf_vwind_sd                 =   7.3789349568155E+00
(PID.TID 0000.0001) %MON exf_vwind_del2               =   1.6873017308676E-03
(PID.TID 0000.0001) %MON exf_wspeed_max               =   1.8380148824231E+01
(PID.TID 0000.0001) %MON exf_wspeed_min               =   3.6880164795866E-02
(PID.TID 0000.0001) %MON exf_wspeed_mean              =   9.9372094247692E+00
(PID.TID 0000.0001) %MON exf_wspeed_sd                =   3.5731963561637E+00
(PID.TID 0000.0001) %MON exf_wspeed_del2              =   2.3517490697074E-03
(PID.TID 0000.0001) %MON exf_atemp_max                =   2.9779093184821E+02
(PID.TID 0000.0001) %MON exf_atemp_min                =   2.7431063773668E+02
(PID.TID 0000.0001) %MON exf_atemp_mean               =   2.8987793461675E+02
(PID.TID 0000.0001) %MON exf_atemp_sd                 =   4.3145498242768E+00
(PID.TID 0000.0001) %MON exf_atemp_del2               =   3.7039107637416E-03
(PID.TID 0000.0001) %MON exf_aqh_max                  =   1.4782801736234E-02
(PID.TID 0000.0001) %MON exf_aqh_min                  =   3.0858811363135E-03
(PID.TID 0000.0001) %MON exf_aqh_mean                 =   9.5862295715457E-03
(PID.TID 0000.0001) %MON exf_aqh_sd                   =   2.2644383926775E-03
(PID.TID 0000.0001) %MON exf_aqh_del2                 =   2.1306189958737E-06
(PID.TID 0000.0001) %MON exf_lwflux_max               =   1.5737087648988E+02
(PID.TID 0000.0001) %MON exf_lwflux_min               =   4.0046610083975E-01
(PID.TID 0000.0001) %MON exf_lwflux_mean              =   7.2758449816990E+01
(PID.TID 0000.0001) %MON exf_lwflux_sd                =   2.7875804743585E+01
(PID.TID 0000.0001) %MON exf_lwflux_del2              =   1.7286633814456E-02
(PID.TID 0000.0001) %MON exf_evap_max                 =   2.4942093649235E-07
(PID.TID 0000.0001) %MON exf_evap_min                 =  -4.2032007644091E-08
(PID.TID 0000.0001) %MON exf_evap_mean                =   7.9563062501184E-08
(PID.TID 0000.0001) %MON exf_evap_sd                  =   5.5937210976356E-08
(PID.TID 0000.0001) %MON exf_evap_del2                =   2.1531594904562E-11
(PID.TID 0000.0001) %MON exf_precip_max               =   1.0367653759881E-06
(PID.TID 0000.0001) %MON exf_precip_min               =   0.0000000000000E+00
(PID.TID 0000.0001) %MON exf_precip_mean              =   3.5727927949805E-08
(PID.TID 0000.0001) %MON exf_precip_sd                =   8.1074376024078E-08
(PID.TID 0000.0001) %MON exf_precip_del2              =   1.7837210458216E-11
(PID.TID 0000.0001) %MON exf_swflux_max               =   0.0000000000000E+00
(PID.TID 0000.0001) %MON exf_swflux_min               =  -1.7400764769408E+01
(PID.TID 0000.0001) %MON exf_swflux_mean              =  -5.7954569180723E-01
(PID.TID 0000.0001) %MON exf_swflux_sd                =   1.8377191992879E+00
(PID.TID 0000.0001) %MON exf_swflux_del2              =   3.9752098112834E-04
(PID.TID 0000.0001) %MON exf_swdown_max               =   1.9334183077120E+01
(PID.TID 0000.0001) %MON exf_swdown_min               =   0.0000000000000E+00
(PID.TID 0000.0001) %MON exf_swdown_mean              =   6.4393965756359E-01
(PID.TID 0000.0001) %MON exf_swdown_sd                =   2.0419102214310E+00
(PID.TID 0000.0001) %MON exf_swdown_del2              =   4.4168997903149E-04
(PID.TID 0000.0001) %MON exf_lwdown_max               =   4.0237342573156E+02
(PID.TID 0000.0001) %MON exf_lwdown_min               =   2.4889028776507E+02
(PID.TID 0000.0001) %MON exf_lwdown_mean              =   3.4205761045924E+02
(PID.TID 0000.0001) %MON exf_lwdown_sd                =   2.7521339986928E+01
(PID.TID 0000.0001) %MON exf_lwdown_del2              =   7.4681217025701E-02
(PID.TID 0000.0001) %MON exf_apressure_max            =   1.0298199924850E+05
(PID.TID 0000.0001) %MON exf_apressure_min            =   9.9654384385710E+04
(PID.TID 0000.0001) %MON exf_apressure_mean           =   1.0184770396919E+05
(PID.TID 0000.0001) %MON exf_apressure_sd             =   8.3790133706339E+02
(PID.TID 0000.0001) %MON exf_apressure_del2           =   2.2281090407600E+01
(PID.TID 0000.0001) %MON exf_runoff_max               =   4.4374798712073E-08
(PID.TID 0000.0001) %MON exf_runoff_min               =   0.0000000000000E+00
(PID.TID 0000.0001) %MON exf_runoff_mean              =   1.5884795719908E-09
(PID.TID 0000.0001) %MON exf_runoff_sd                =   5.3901959599983E-09
(PID.TID 0000.0001) %MON exf_runoff_del2              =   1.2741189756369E-12
(PID.TID 0000.0001) // =======================================================
(PID.TID 0000.0001) // End MONITOR EXF statistics
(PID.TID 0000.0001) // =======================================================
 cg2d: Sum(rhs),rhsMax =   6.62121604486754E+02  5.76889374813090E-02
(PID.TID 0000.0001)      cg2d_init_res =   1.47746115272639E+00
(PID.TID 0000.0001)      cg2d_iters(min,last) =      -1     316
(PID.TID 0000.0001)      cg2d_last_res =   6.65225292675494E-12
(PID.TID 0000.0001) // =======================================================
(PID.TID 0000.0001) // Begin MONITOR dynamic field statistics
(PID.TID 0000.0001) // =======================================================
(PID.TID 0000.0001) %MON time_tsnumber                =                     7
(PID.TID 0000.0001) %MON time_secondsf                =   1.6800000000000E+03
(PID.TID 0000.0001) %MON dynstat_eta_max              =   1.0090490733239E+00
(PID.TID 0000.0001) %MON dynstat_eta_min              =  -1.2343568170017E+00
(PID.TID 0000.0001) %MON dynstat_eta_mean             =  -2.2516836340812E-02
(PID.TID 0000.0001) %MON dynstat_eta_sd               =   2.0028187183774E-01
(PID.TID 0000.0001) %MON dynstat_eta_del2             =   2.4045199959120E-06
(PID.TID 0000.0001) %MON dynstat_uvel_max             =   1.2973070241571E+00
(PID.TID 0000.0001) %MON dynstat_uvel_min             =  -7.8922812376606E-01
(PID.TID 0000.0001) %MON dynstat_uvel_mean            =   4.1348786466787E-03
(PID.TID 0000.0001) %MON dynstat_uvel_sd              =   5.2424595344970E-02
(PID.TID 0000.0001) %MON dynstat_uvel_del2            =   4.8027829800211E-07
(PID.TID 0000.0001) %MON dynstat_vvel_max             =   2.2418623661086E+00
(PID.TID 0000.0001) %MON dynstat_vvel_min             =  -8.8908179879786E-01
(PID.TID 0000.0001) %MON dynstat_vvel_mean            =  -2.8583898985368E-03
(PID.TID 0000.0001) %MON dynstat_vvel_sd              =   4.8738134430672E-02
(PID.TID 0000.0001) %MON dynstat_vvel_del2            =   4.4044496639224E-07
(PID.TID 0000.0001) %MON dynstat_wvel_max             =   3.6315123161410E-02
(PID.TID 0000.0001) %MON dynstat_wvel_min             =  -2.9060246465149E-02
(PID.TID 0000.0001) %MON dynstat_wvel_mean            =  -1.0345911775195E-05
(PID.TID 0000.0001) %MON dynstat_wvel_sd              =   5.8924875994439E-04
(PID.TID 0000.0001) %MON dynstat_wvel_del2            =   7.4896236892480E-08
(PID.TID 0000.0001) %MON dynstat_theta_max            =   2.6137507537115E+01
(PID.TID 0000.0001) %MON dynstat_theta_min            =   1.4688642981473E+00
(PID.TID 0000.0001) %MON dynstat_theta_mean           =   5.5098362100631E+00
(PID.TID 0000.0001) %MON dynstat_theta_sd             =   4.7733352348106E+00
(PID.TID 0000.0001) %MON dynstat_theta_del2           =   4.0161234834608E-06
(PID.TID 0000.0001) %MON dynstat_salt_max             =   3.9170588391957E+01
(PID.TID 0000.0001) %MON dynstat_salt_min             =   3.3090573343888E+01
(PID.TID 0000.0001) %MON dynstat_salt_mean            =   3.5173366978187E+01
(PID.TID 0000.0001) %MON dynstat_salt_sd              =   3.7891345665550E-01
(PID.TID 0000.0001) %MON dynstat_salt_del2            =   5.1058354733728E-07
(PID.TID 0000.0001) %MON dynstat_sst_max              =   2.6127463844643E+01
(PID.TID 0000.0001) %MON dynstat_sst_min              =   3.9863951124475E+00
(PID.TID 0000.0001) %MON dynstat_sst_mean             =   1.9638409429796E+01
(PID.TID 0000.0001) %MON dynstat_sst_sd               =   3.6364464249700E+00
(PID.TID 0000.0001) %MON dynstat_sst_del2             =   1.9118021268871E-05
(PID.TID 0000.0001) %MON dynstat_sss_max              =   3.7335295024412E+01
(PID.TID 0000.0001) %MON dynstat_sss_min              =   3.3090573343888E+01
(PID.TID 0000.0001) %MON dynstat_sss_mean             =   3.5868378293928E+01
(PID.TID 0000.0001) %MON dynstat_sss_sd               =   4.8736404441189E-01
(PID.TID 0000.0001) %MON dynstat_sss_del2             =   4.9543900024949E-06
(PID.TID 0000.0001) %MON forcing_qnet_max             =   1.0796269718596E+03
(PID.TID 0000.0001) %MON forcing_qnet_min             =  -1.7476397682097E+02
(PID.TID 0000.0001) %MON forcing_qnet_mean            =   3.2788072281677E+02
(PID.TID 0000.0001) %MON forcing_qnet_sd              =   2.1748433281448E+02
(PID.TID 0000.0001) %MON forcing_qnet_del2            =   1.1824350257969E-03
(PID.TID 0000.0001) %MON forcing_qsw_max              =   0.0000000000000E+00
(PID.TID 0000.0001) %MON forcing_qsw_min              =  -1.7400764769408E+01
(PID.TID 0000.0001) %MON forcing_qsw_mean             =  -5.7954569180723E-01
(PID.TID 0000.0001) %MON forcing_qsw_sd               =   1.8377191992879E+00
(PID.TID 0000.0001) %MON forcing_qsw_del2             =   5.9181939137927E-06
(PID.TID 0000.0001) %MON forcing_empmr_max            =   2.2716871078797E-04
(PID.TID 0000.0001) %MON forcing_empmr_min            =  -1.0373228386123E-03
(PID.TID 0000.0001) %MON forcing_empmr_mean           =   4.2246654979388E-05
(PID.TID 0000.0001) %MON forcing_empmr_sd             =   1.0738237641532E-04
(PID.TID 0000.0001) %MON forcing_empmr_del2           =   8.8814423225267E-10
(PID.TID 0000.0001) %MON forcing_fu_max               =   5.8024135058866E-01
(PID.TID 0000.0001) %MON forcing_fu_min               =  -1.7911533632508E-01
(PID.TID 0000.0001) %MON forcing_fu_mean              =   9.8539955150084E-02
(PID.TID 0000.0001) %MON forcing_fu_sd                =   1.3620596238288E-01
(PID.TID 0000.0001) %MON forcing_fu_del2              =   1.6809711568417E-07
(PID.TID 0000.0001) %MON forcing_fv_max               =   4.1084946099990E-01
(PID.TID 0000.0001) %MON forcing_fv_min               =  -4.7392234201092E-01
(PID.TID 0000.0001) %MON forcing_fv_mean              =   2.7707078009320E-02
(PID.TID 0000.0001) %MON forcing_fv_sd                =   1.5374327690439E-01
(PID.TID 0000.0001) %MON forcing_fv_del2              =   3.1000267219754E-07
(PID.TID 0000.0001) %MON trAdv_CFL_u_max              =   7.8708606861599E-02
(PID.TID 0000.0001) %MON trAdv_CFL_v_max              =   1.4164850708792E-01
(PID.TID 0000.0001) %MON trAdv_CFL_w_max              =   5.0834582882222E-01
(PID.TID 0000.0001) %MON advcfl_uvel_max              =   7.8708605789910E-02
(PID.TID 0000.0001) %MON advcfl_vvel_max              =   1.4168972133379E-01
(PID.TID 0000.0001) %MON advcfl_wvel_max              =   5.0440516348251E-01
(PID.TID 0000.0001) %MON advcfl_W_hf_max              =   5.0834582882222E-01
(PID.TID 0000.0001) %MON pe_b_mean                    =  -4.9016882748100E-04
(PID.TID 0000.0001) %MON ke_max                       =   2.2872702272686E+00
(PID.TID 0000.0001) %MON ke_mean                      =   2.5554848945637E-03
(PID.TID 0000.0001) %MON ke_vol                       =   4.5818637279720E+16
(PID.TID 0000.0001) %MON vort_r_min                   =  -5.0952934593500E-04
(PID.TID 0000.0001) %MON vort_r_max                   =   5.6283058799504E-04
(PID.TID 0000.0001) %MON vort_a_mean                  =   8.2147626272995E-05
(PID.TID 0000.0001) %MON vort_a_sd                    =   1.0133460585263E-05
(PID.TID 0000.0001) %MON vort_p_mean                  =   8.4848847686840E-05
(PID.TID 0000.0001) %MON vort_p_sd                    =   3.4980713214207E-05
(PID.TID 0000.0001) %MON surfExpan_theta_mean         =  -1.8039414248271E-04
(PID.TID 0000.0001) %MON surfExpan_salt_mean          =  -6.7089697023774E-04
(PID.TID 0000.0001) // =======================================================
(PID.TID 0000.0001) // End MONITOR dynamic field statistics
(PID.TID 0000.0001) // =======================================================
(PID.TID 0000.0001) // =======================================================
(PID.TID 0000.0001) // Begin OBCS MONITOR field statistics
(PID.TID 0000.0001) // =======================================================
(PID.TID 0000.0001) %MON obc_N_vVel_max               =   6.9521236116019E-01
(PID.TID 0000.0001) %MON obc_N_vVel_min               =  -3.2280691227700E-01
(PID.TID 0000.0001) %MON obc_N_vVel_mean              =   1.3558519772720E-02
(PID.TID 0000.0001) %MON obc_N_vVel_sd                =   6.4657344949975E-02
(PID.TID 0000.0001) %MON obc_N_vVel_Int               =   1.9409135573529E+08
(PID.TID 0000.0001) %MON obc_S_vVel_max               =   2.2418623661086E+00
(PID.TID 0000.0001) %MON obc_S_vVel_min               =  -2.6267591393568E-01
(PID.TID 0000.0001) %MON obc_S_vVel_mean              =  -7.7413489822454E-04
(PID.TID 0000.0001) %MON obc_S_vVel_sd                =   3.6015630243837E-02
(PID.TID 0000.0001) %MON obc_S_vVel_Int               =  -2.3566911039958E+07
(PID.TID 0000.0001) %MON obc_N_theta_max              =   1.6390244329854E+01
(PID.TID 0000.0001) %MON obc_N_theta_min              =   1.8895910704432E+00
(PID.TID 0000.0001) %MON obc_N_theta_mean             =   5.1589288128385E+00
(PID.TID 0000.0001) %MON obc_N_theta_sd               =   3.4826688944174E+00
(PID.TID 0000.0001) %MON obc_S_theta_max              =   2.5544222067351E+01
(PID.TID 0000.0001) %MON obc_S_theta_min              =   1.4632984148975E+00
(PID.TID 0000.0001) %MON obc_S_theta_mean             =   5.4595521450393E+00
(PID.TID 0000.0001) %MON obc_S_theta_sd               =   5.3559099369382E+00
(PID.TID 0000.0001) %MON obc_N_salt_max               =   3.5910864789416E+01
(PID.TID 0000.0001) %MON obc_N_salt_min               =   3.3295052588478E+01
(PID.TID 0000.0001) %MON obc_N_salt_mean              =   3.5114562244443E+01
(PID.TID 0000.0001) %MON obc_N_salt_sd                =   3.0984849390781E-01
(PID.TID 0000.0001) %MON obc_S_salt_max               =   3.7318298439933E+01
(PID.TID 0000.0001) %MON obc_S_salt_min               =   3.4844694679359E+01
(PID.TID 0000.0001) %MON obc_S_salt_mean              =   3.5168372435418E+01
(PID.TID 0000.0001) %MON obc_S_salt_sd                =   4.5716865028953E-01
(PID.TID 0000.0001) // =======================================================
(PID.TID 0000.0001) // End OBCS MONITOR field statistics
(PID.TID 0000.0001) // =======================================================
(PID.TID 0000.0001) // =======================================================
(PID.TID 0000.0001) // Begin MONITOR EXF statistics
(PID.TID 0000.0001) // =======================================================
(PID.TID 0000.0001) %MON exf_tsnumber                 =                     7
(PID.TID 0000.0001) %MON exf_time_sec                 =   1.6800000000000E+03
(PID.TID 0000.0001) %MON exf_ustress_max              =   5.7798141600762E-01
(PID.TID 0000.0001) %MON exf_ustress_min              =  -1.7850883031868E-01
(PID.TID 0000.0001) %MON exf_ustress_mean             =   9.8255188907625E-02
(PID.TID 0000.0001) %MON exf_ustress_sd               =   1.3586448938454E-01
(PID.TID 0000.0001) %MON exf_ustress_del2             =   1.9308975209143E-07
(PID.TID 0000.0001) %MON exf_vstress_max              =   4.1093090921031E-01
(PID.TID 0000.0001) %MON exf_vstress_min              =  -4.7356227875436E-01
(PID.TID 0000.0001) %MON exf_vstress_mean             =   2.7888076359635E-02
(PID.TID 0000.0001) %MON exf_vstress_sd               =   1.5344058556757E-01
(PID.TID 0000.0001) %MON exf_vstress_del2             =   3.3528949789166E-07
(PID.TID 0000.0001) %MON exf_hflux_max                =   1.0621192646364E+03
(PID.TID 0000.0001) %MON exf_hflux_min                =  -1.3216758544375E+02
(PID.TID 0000.0001) %MON exf_hflux_mean               =   3.2322590088611E+02
(PID.TID 0000.0001) %MON exf_hflux_sd                 =   2.1137393593691E+02
(PID.TID 0000.0001) %MON exf_hflux_del2               =   8.6426552799435E-02
(PID.TID 0000.0001) %MON exf_sflux_max                =   2.2672195685280E-07
(PID.TID 0000.0001) %MON exf_sflux_min                =  -1.0505646261635E-06
(PID.TID 0000.0001) %MON exf_sflux_mean               =   4.2064345716706E-08
(PID.TID 0000.0001) %MON exf_sflux_sd                 =   1.0788885884890E-07
(PID.TID 0000.0001) %MON exf_sflux_del2               =   2.3988846594362E-11
(PID.TID 0000.0001) %MON exf_uwind_max                =   1.5716469999598E+01
(PID.TID 0000.0001) %MON exf_uwind_min                =  -1.0509787743937E+01
(PID.TID 0000.0001) %MON exf_uwind_mean               =   4.3683681146654E+00
(PID.TID 0000.0001) %MON exf_uwind_sd                 =   5.9100864882629E+00
(PID.TID 0000.0001) %MON exf_uwind_del2               =   1.6376524318057E-03
(PID.TID 0000.0001) %MON exf_vwind_max                =   1.4905950075679E+01
(PID.TID 0000.0001) %MON exf_vwind_min                =  -1.3113468077728E+01
(PID.TID 0000.0001) %MON exf_vwind_mean               =   1.7372578645293E+00
(PID.TID 0000.0001) %MON exf_vwind_sd                 =   7.3719218339532E+00
(PID.TID 0000.0001) %MON exf_vwind_del2               =   1.6860330883628E-03
(PID.TID 0000.0001) %MON exf_wspeed_max               =   1.8363346188127E+01
(PID.TID 0000.0001) %MON exf_wspeed_min               =   4.6881733810064E-02
(PID.TID 0000.0001) %MON exf_wspeed_mean              =   9.9313958014783E+00
(PID.TID 0000.0001) %MON exf_wspeed_sd                =   3.5696549037877E+00
(PID.TID 0000.0001) %MON exf_wspeed_del2              =   2.3503878173471E-03
(PID.TID 0000.0001) %MON exf_atemp_max                =   2.9779047782038E+02
(PID.TID 0000.0001) %MON exf_atemp_min                =   2.7432176490132E+02
(PID.TID 0000.0001) %MON exf_atemp_mean               =   2.8987800812987E+02
(PID.TID 0000.0001) %MON exf_atemp_sd                 =   4.3111871116855E+00
(PID.TID 0000.0001) %MON exf_atemp_del2               =   3.7038897227433E-03
(PID.TID 0000.0001) %MON exf_aqh_max                  =   1.4804406394637E-02
(PID.TID 0000.0001) %MON exf_aqh_min                  =   3.0934282272954E-03
(PID.TID 0000.0001) %MON exf_aqh_mean                 =   9.5858463890204E-03
(PID.TID 0000.0001) %MON exf_aqh_sd                   =   2.2621519495468E-03
(PID.TID 0000.0001) %MON exf_aqh_del2                 =   2.1304869025644E-06
(PID.TID 0000.0001) %MON exf_lwflux_max               =   1.5715932940007E+02
(PID.TID 0000.0001) %MON exf_lwflux_min               =  -2.6158264853873E-01
(PID.TID 0000.0001) %MON exf_lwflux_mean              =   7.2751443386667E+01
(PID.TID 0000.0001) %MON exf_lwflux_sd                =   2.7898580289023E+01
(PID.TID 0000.0001) %MON exf_lwflux_del2              =   1.7285690318522E-02
(PID.TID 0000.0001) %MON exf_evap_max                 =   2.4909082383010E-07
(PID.TID 0000.0001) %MON exf_evap_min                 =  -4.1889069638033E-08
(PID.TID 0000.0001) %MON exf_evap_mean                =   7.9475611418715E-08
(PID.TID 0000.0001) %MON exf_evap_sd                  =   5.5841157989348E-08
(PID.TID 0000.0001) %MON exf_evap_del2                =   2.1501914164818E-11
(PID.TID 0000.0001) %MON exf_precip_max               =   1.0498756640800E-06
(PID.TID 0000.0001) %MON exf_precip_min               =   0.0000000000000E+00
(PID.TID 0000.0001) %MON exf_precip_mean              =   3.5822786130018E-08
(PID.TID 0000.0001) %MON exf_precip_sd                =   8.1672012886129E-08
(PID.TID 0000.0001) %MON exf_precip_del2              =   1.7949294168501E-11
(PID.TID 0000.0001) %MON exf_swflux_max               =   0.0000000000000E+00
(PID.TID 0000.0001) %MON exf_swflux_min               =  -1.6346172965201E+01
(PID.TID 0000.0001) %MON exf_swflux_mean              =  -5.4442171048558E-01
(PID.TID 0000.0001) %MON exf_swflux_sd                =   1.7263422781189E+00
(PID.TID 0000.0001) %MON exf_swflux_del2              =   3.7342880045390E-04
(PID.TID 0000.0001) %MON exf_swdown_max               =   1.8162414405779E+01
(PID.TID 0000.0001) %MON exf_swdown_min               =   0.0000000000000E+00
(PID.TID 0000.0001) %MON exf_swdown_mean              =   6.0491301165065E-01
(PID.TID 0000.0001) %MON exf_swdown_sd                =   1.9181580867988E+00
(PID.TID 0000.0001) %MON exf_swdown_del2              =   4.1492088939322E-04
(PID.TID 0000.0001) %MON exf_lwdown_max               =   4.0247541905117E+02
(PID.TID 0000.0001) %MON exf_lwdown_min               =   2.4892532480980E+02
(PID.TID 0000.0001) %MON exf_lwdown_mean              =   3.4205858854642E+02
(PID.TID 0000.0001) %MON exf_lwdown_sd                =   2.7527986588131E+01
(PID.TID 0000.0001) %MON exf_lwdown_del2              =   7.4681941102670E-02
(PID.TID 0000.0001) %MON exf_apressure_max            =   1.0297947401009E+05
(PID.TID 0000.0001) %MON exf_apressure_min            =   9.9653222852318E+04
(PID.TID 0000.0001) %MON exf_apressure_mean           =   1.0184607026144E+05
(PID.TID 0000.0001) %MON exf_apressure_sd             =   8.3733671454949E+02
(PID.TID 0000.0001) %MON exf_apressure_del2           =   2.2280742389507E+01
(PID.TID 0000.0001) %MON exf_runoff_max               =   4.4374798712073E-08
(PID.TID 0000.0001) %MON exf_runoff_min               =   0.0000000000000E+00
(PID.TID 0000.0001) %MON exf_runoff_mean              =   1.5884795719908E-09
(PID.TID 0000.0001) %MON exf_runoff_sd                =   5.3901959599983E-09
(PID.TID 0000.0001) %MON exf_runoff_del2              =   1.2741189756369E-12
(PID.TID 0000.0001) // =======================================================
(PID.TID 0000.0001) // End MONITOR EXF statistics
(PID.TID 0000.0001) // =======================================================
 cg2d: Sum(rhs),rhsMax =   8.11432175923066E+02  6.53576048887310E-02
(PID.TID 0000.0001)      cg2d_init_res =   1.50159962989585E+00
(PID.TID 0000.0001)      cg2d_iters(min,last) =      -1     316
(PID.TID 0000.0001)      cg2d_last_res =   6.51187203180042E-12
(PID.TID 0000.0001) // =======================================================
(PID.TID 0000.0001) // Begin MONITOR dynamic field statistics
(PID.TID 0000.0001) // =======================================================
(PID.TID 0000.0001) %MON time_tsnumber                =                     8
(PID.TID 0000.0001) %MON time_secondsf                =   1.9200000000000E+03
(PID.TID 0000.0001) %MON dynstat_eta_max              =   9.8552245832462E-01
(PID.TID 0000.0001) %MON dynstat_eta_min              =  -1.2451052983953E+00
(PID.TID 0000.0001) %MON dynstat_eta_mean             =  -2.7594456038165E-02
(PID.TID 0000.0001) %MON dynstat_eta_sd               =   2.1357280179426E-01
(PID.TID 0000.0001) %MON dynstat_eta_del2             =   2.4536660264724E-06
(PID.TID 0000.0001) %MON dynstat_uvel_max             =   1.2961787624981E+00
(PID.TID 0000.0001) %MON dynstat_uvel_min             =  -7.7662625660230E-01
(PID.TID 0000.0001) %MON dynstat_uvel_mean            =   4.0693170680653E-03
(PID.TID 0000.0001) %MON dynstat_uvel_sd              =   5.2404888500033E-02
(PID.TID 0000.0001) %MON dynstat_uvel_del2            =   4.8957331120394E-07
(PID.TID 0000.0001) %MON dynstat_vvel_max             =   2.3044155098749E+00
(PID.TID 0000.0001) %MON dynstat_vvel_min             =  -8.9005302942182E-01
(PID.TID 0000.0001) %MON dynstat_vvel_mean            =  -3.1591860439185E-03
(PID.TID 0000.0001) %MON dynstat_vvel_sd              =   4.8898912359496E-02
(PID.TID 0000.0001) %MON dynstat_vvel_del2            =   4.4936460544559E-07
(PID.TID 0000.0001) %MON dynstat_wvel_max             =   3.5910413699379E-02
(PID.TID 0000.0001) %MON dynstat_wvel_min             =  -2.8198069374082E-02
(PID.TID 0000.0001) %MON dynstat_wvel_mean            =  -1.1519436772765E-05
(PID.TID 0000.0001) %MON dynstat_wvel_sd              =   5.9311872134360E-04
(PID.TID 0000.0001) %MON dynstat_wvel_del2            =   7.4872037832737E-08
(PID.TID 0000.0001) %MON dynstat_theta_max            =   2.6136705782009E+01
(PID.TID 0000.0001) %MON dynstat_theta_min            =   1.4688644309210E+00
(PID.TID 0000.0001) %MON dynstat_theta_mean           =   5.5098370910499E+00
(PID.TID 0000.0001) %MON dynstat_theta_sd             =   4.7733171406733E+00
(PID.TID 0000.0001) %MON dynstat_theta_del2           =   4.0194425482059E-06
(PID.TID 0000.0001) %MON dynstat_salt_max             =   3.9167288546863E+01
(PID.TID 0000.0001) %MON dynstat_salt_min             =   3.3090717337428E+01
(PID.TID 0000.0001) %MON dynstat_salt_mean            =   3.5173366624902E+01
(PID.TID 0000.0001) %MON dynstat_salt_sd              =   3.7891425228562E-01
(PID.TID 0000.0001) %MON dynstat_salt_del2            =   5.1440690067986E-07
(PID.TID 0000.0001) %MON dynstat_sst_max              =   2.6125845377062E+01
(PID.TID 0000.0001) %MON dynstat_sst_min              =   3.9709820652164E+00
(PID.TID 0000.0001) %MON dynstat_sst_mean             =   1.9637405088906E+01
(PID.TID 0000.0001) %MON dynstat_sst_sd               =   3.6362876059329E+00
(PID.TID 0000.0001) %MON dynstat_sst_del2             =   1.9136857671339E-05
(PID.TID 0000.0001) %MON dynstat_sss_max              =   3.7335333927400E+01
(PID.TID 0000.0001) %MON dynstat_sss_min              =   3.3090717337428E+01
(PID.TID 0000.0001) %MON dynstat_sss_mean             =   3.5868419890099E+01
(PID.TID 0000.0001) %MON dynstat_sss_sd               =   4.8738133260248E-01
(PID.TID 0000.0001) %MON dynstat_sss_del2             =   4.9459447437520E-06
(PID.TID 0000.0001) %MON forcing_qnet_max             =   1.0781274167468E+03
(PID.TID 0000.0001) %MON forcing_qnet_min             =  -1.7661646367930E+02
(PID.TID 0000.0001) %MON forcing_qnet_mean            =   3.2759477592905E+02
(PID.TID 0000.0001) %MON forcing_qnet_sd              =   2.1717275016105E+02
(PID.TID 0000.0001) %MON forcing_qnet_del2            =   1.1804102734449E-03
(PID.TID 0000.0001) %MON forcing_qsw_max              =   0.0000000000000E+00
(PID.TID 0000.0001) %MON forcing_qsw_min              =  -1.6346172965201E+01
(PID.TID 0000.0001) %MON forcing_qsw_mean             =  -5.4442171048558E-01
(PID.TID 0000.0001) %MON forcing_qsw_sd               =   1.7263422781189E+00
(PID.TID 0000.0001) %MON forcing_qsw_del2             =   5.5595154947749E-06
(PID.TID 0000.0001) %MON forcing_empmr_max            =   2.2672195685280E-04
(PID.TID 0000.0001) %MON forcing_empmr_min            =  -1.0505646261635E-03
(PID.TID 0000.0001) %MON forcing_empmr_mean           =   4.2064345716706E-05
(PID.TID 0000.0001) %MON forcing_empmr_sd             =   1.0788885884890E-04
(PID.TID 0000.0001) %MON forcing_empmr_del2           =   9.0033306240971E-10
(PID.TID 0000.0001) %MON forcing_fu_max               =   5.7795035409602E-01
(PID.TID 0000.0001) %MON forcing_fu_min               =  -1.7850465010800E-01
(PID.TID 0000.0001) %MON forcing_fu_mean              =   9.8361905121132E-02
(PID.TID 0000.0001) %MON forcing_fu_sd                =   1.3589330188336E-01
(PID.TID 0000.0001) %MON forcing_fu_del2              =   1.6823012156986E-07
(PID.TID 0000.0001) %MON forcing_fv_max               =   4.1087901948445E-01
(PID.TID 0000.0001) %MON forcing_fv_min               =  -4.7355268044107E-01
(PID.TID 0000.0001) %MON forcing_fv_mean              =   2.7821834587485E-02
(PID.TID 0000.0001) %MON forcing_fv_sd                =   1.5345065039116E-01
(PID.TID 0000.0001) %MON forcing_fv_del2              =   3.1160501329628E-07
(PID.TID 0000.0001) %MON trAdv_CFL_u_max              =   7.8640154366005E-02
(PID.TID 0000.0001) %MON trAdv_CFL_v_max              =   1.4560082796279E-01
(PID.TID 0000.0001) %MON trAdv_CFL_w_max              =   5.2214970432857E-01
(PID.TID 0000.0001) %MON advcfl_uvel_max              =   7.8640153295249E-02
(PID.TID 0000.0001) %MON advcfl_vvel_max              =   1.4564319218142E-01
(PID.TID 0000.0001) %MON advcfl_wvel_max              =   5.1810203220199E-01
(PID.TID 0000.0001) %MON advcfl_W_hf_max              =   5.2214970432857E-01
(PID.TID 0000.0001) %MON pe_b_mean                    =  -6.0608528950245E-04
(PID.TID 0000.0001) %MON ke_max                       =   2.4052354507548E+00
(PID.TID 0000.0001) %MON ke_mean                      =   2.5628957237754E-03
(PID.TID 0000.0001) %MON ke_vol                       =   4.5818637279720E+16
(PID.TID 0000.0001) %MON vort_r_min                   =  -5.1268190334045E-04
(PID.TID 0000.0001) %MON vort_r_max                   =   5.9832807145272E-04
(PID.TID 0000.0001) %MON vort_a_mean                  =   8.2147625482284E-05
(PID.TID 0000.0001) %MON vort_a_sd                    =   1.0136920322357E-05
(PID.TID 0000.0001) %MON vort_p_mean                  =   8.4848846870129E-05
(PID.TID 0000.0001) %MON vort_p_sd                    =   3.4982351978240E-05
(PID.TID 0000.0001) %MON surfExpan_theta_mean         =  -2.2476141029607E-04
(PID.TID 0000.0001) %MON surfExpan_salt_mean          =  -7.4078626172784E-04
(PID.TID 0000.0001) // =======================================================
(PID.TID 0000.0001) // End MONITOR dynamic field statistics
(PID.TID 0000.0001) // =======================================================
(PID.TID 0000.0001) // =======================================================
(PID.TID 0000.0001) // Begin OBCS MONITOR field statistics
(PID.TID 0000.0001) // =======================================================
(PID.TID 0000.0001) %MON obc_N_vVel_max               =   6.9508252845469E-01
(PID.TID 0000.0001) %MON obc_N_vVel_min               =  -3.2303846185327E-01
(PID.TID 0000.0001) %MON obc_N_vVel_mean              =   1.3565341758323E-02
(PID.TID 0000.0001) %MON obc_N_vVel_sd                =   6.4642702525486E-02
(PID.TID 0000.0001) %MON obc_N_vVel_Int               =   1.9418901303540E+08
(PID.TID 0000.0001) %MON obc_S_vVel_max               =   2.3044155098749E+00
(PID.TID 0000.0001) %MON obc_S_vVel_min               =  -2.6277536312677E-01
(PID.TID 0000.0001) %MON obc_S_vVel_mean              =  -1.4753268654655E-03
(PID.TID 0000.0001) %MON obc_S_vVel_sd                =   3.6069865338561E-02
(PID.TID 0000.0001) %MON obc_S_vVel_Int               =  -4.4913227750133E+07
(PID.TID 0000.0001) %MON obc_N_theta_max              =   1.6390156227667E+01
(PID.TID 0000.0001) %MON obc_N_theta_min              =   1.8895911195086E+00
(PID.TID 0000.0001) %MON obc_N_theta_mean             =   5.1589214286885E+00
(PID.TID 0000.0001) %MON obc_N_theta_sd               =   3.4826596030751E+00
(PID.TID 0000.0001) %MON obc_S_theta_max              =   2.5544119318571E+01
(PID.TID 0000.0001) %MON obc_S_theta_min              =   1.4632988111847E+00
(PID.TID 0000.0001) %MON obc_S_theta_mean             =   5.4595513400147E+00
(PID.TID 0000.0001) %MON obc_S_theta_sd               =   5.3559060658268E+00
(PID.TID 0000.0001) %MON obc_N_salt_max               =   3.5910864381053E+01
(PID.TID 0000.0001) %MON obc_N_salt_min               =   3.3295058091112E+01
(PID.TID 0000.0001) %MON obc_N_salt_mean              =   3.5114561948457E+01
(PID.TID 0000.0001) %MON obc_N_salt_sd                =   3.0984837468061E-01
(PID.TID 0000.0001) %MON obc_S_salt_max               =   3.7318291555549E+01
(PID.TID 0000.0001) %MON obc_S_salt_min               =   3.4844694731580E+01
(PID.TID 0000.0001) %MON obc_S_salt_mean              =   3.5168372363501E+01
(PID.TID 0000.0001) %MON obc_S_salt_sd                =   4.5716829923947E-01
(PID.TID 0000.0001) // =======================================================
(PID.TID 0000.0001) // End OBCS MONITOR field statistics
(PID.TID 0000.0001) // =======================================================
(PID.TID 0000.0001)  EXF_INTERP_READ: opening file: jra55/tide_2003
(PID.TID 0000.0001) // =======================================================
(PID.TID 0000.0001) // Begin MONITOR EXF statistics
(PID.TID 0000.0001) // =======================================================
(PID.TID 0000.0001) %MON exf_tsnumber                 =                     8
(PID.TID 0000.0001) %MON exf_time_sec                 =   1.9200000000000E+03
(PID.TID 0000.0001) %MON exf_ustress_max              =   5.7578446960789E-01
(PID.TID 0000.0001) %MON exf_ustress_min              =  -1.7793832868087E-01
(PID.TID 0000.0001) %MON exf_ustress_mean             =   9.8087711681585E-02
(PID.TID 0000.0001) %MON exf_ustress_sd               =   1.3557651944260E-01
(PID.TID 0000.0001) %MON exf_ustress_del2             =   1.9369684439547E-07
(PID.TID 0000.0001) %MON exf_vstress_max              =   4.1191090263664E-01
(PID.TID 0000.0001) %MON exf_vstress_min              =  -4.7327770811988E-01
(PID.TID 0000.0001) %MON exf_vstress_mean             =   2.8007162129111E-02
(PID.TID 0000.0001) %MON exf_vstress_sd               =   1.5317543746083E-01
(PID.TID 0000.0001) %MON exf_vstress_del2             =   3.3725703927021E-07
(PID.TID 0000.0001) %MON exf_hflux_max                =   1.0607285506108E+03
(PID.TID 0000.0001) %MON exf_hflux_min                =  -1.3138140103168E+02
(PID.TID 0000.0001) %MON exf_hflux_mean               =   3.2297335987007E+02
(PID.TID 0000.0001) %MON exf_hflux_sd                 =   2.1107142785523E+02
(PID.TID 0000.0001) %MON exf_hflux_del2               =   8.6331223422240E-02
(PID.TID 0000.0001) %MON exf_sflux_max                =   2.2628994672801E-07
(PID.TID 0000.0001) %MON exf_sflux_min                =  -1.0638347912025E-06
(PID.TID 0000.0001) %MON exf_sflux_mean               =   4.1887581891145E-08
(PID.TID 0000.0001) %MON exf_sflux_sd                 =   1.0842359764177E-07
(PID.TID 0000.0001) %MON exf_sflux_del2               =   2.4062832297485E-11
(PID.TID 0000.0001) %MON exf_uwind_max                =   1.5662928901678E+01
(PID.TID 0000.0001) %MON exf_uwind_min                =  -1.0490872282273E+01
(PID.TID 0000.0001) %MON exf_uwind_mean               =   4.3671273362566E+00
(PID.TID 0000.0001) %MON exf_uwind_sd                 =   5.9065074395682E+00
(PID.TID 0000.0001) %MON exf_uwind_del2               =   1.6370810127275E-03
(PID.TID 0000.0001) %MON exf_vwind_max                =   1.4880899689310E+01
(PID.TID 0000.0001) %MON exf_vwind_min                =  -1.3099551647735E+01
(PID.TID 0000.0001) %MON exf_vwind_mean               =   1.7431731401642E+00
(PID.TID 0000.0001) %MON exf_vwind_sd                 =   7.3653645154350E+00
(PID.TID 0000.0001) %MON exf_vwind_del2               =   1.6848776401654E-03
(PID.TID 0000.0001) %MON exf_wspeed_max               =   1.8347526545415E+01
(PID.TID 0000.0001) %MON exf_wspeed_min               =   1.0905423220343E-02
(PID.TID 0000.0001) %MON exf_wspeed_mean              =   9.9260418777872E+00
(PID.TID 0000.0001) %MON exf_wspeed_sd                =   3.5664507548804E+00
(PID.TID 0000.0001) %MON exf_wspeed_del2              =   2.3491616761039E-03
(PID.TID 0000.0001) %MON exf_atemp_max                =   2.9779002379254E+02
(PID.TID 0000.0001) %MON exf_atemp_min                =   2.7433289206596E+02
(PID.TID 0000.0001) %MON exf_atemp_mean               =   2.8987808164300E+02
(PID.TID 0000.0001) %MON exf_atemp_sd                 =   4.3078581803940E+00
(PID.TID 0000.0001) %MON exf_atemp_del2               =   3.7038708628362E-03
(PID.TID 0000.0001) %MON exf_aqh_max                  =   1.4826011053040E-02
(PID.TID 0000.0001) %MON exf_aqh_min                  =   3.1009753182772E-03
(PID.TID 0000.0001) %MON exf_aqh_mean                 =   9.5854632064951E-03
(PID.TID 0000.0001) %MON exf_aqh_sd                   =   2.2599130827309E-03
(PID.TID 0000.0001) %MON exf_aqh_del2                 =   2.1303574590727E-06
(PID.TID 0000.0001) %MON exf_lwflux_max               =   1.5694811804531E+02
(PID.TID 0000.0001) %MON exf_lwflux_min               =  -9.2382845455593E-01
(PID.TID 0000.0001) %MON exf_lwflux_mean              =   7.2744913638310E+01
(PID.TID 0000.0001) %MON exf_lwflux_sd                =   2.7924457695726E+01
(PID.TID 0000.0001) %MON exf_lwflux_del2              =   1.7285111546243E-02
(PID.TID 0000.0001) %MON exf_evap_max                 =   2.4877647142821E-07
(PID.TID 0000.0001) %MON exf_evap_min                 =  -4.1747194901073E-08
(PID.TID 0000.0001) %MON exf_evap_mean                =   7.9393705773367E-08
(PID.TID 0000.0001) %MON exf_evap_sd                  =   5.5750080749654E-08
(PID.TID 0000.0001) %MON exf_evap_del2                =   2.1474060269124E-11
(PID.TID 0000.0001) %MON exf_precip_max               =   1.0629859521719E-06
(PID.TID 0000.0001) %MON exf_precip_min               =   0.0000000000000E+00
(PID.TID 0000.0001) %MON exf_precip_mean              =   3.5917644310232E-08
(PID.TID 0000.0001) %MON exf_precip_sd                =   8.2300605935477E-08
(PID.TID 0000.0001) %MON exf_precip_del2              =   1.8067339527166E-11
(PID.TID 0000.0001) %MON exf_swflux_max               =   0.0000000000000E+00
(PID.TID 0000.0001) %MON exf_swflux_min               =  -1.5291581160995E+01
(PID.TID 0000.0001) %MON exf_swflux_mean              =  -5.0929772916393E-01
(PID.TID 0000.0001) %MON exf_swflux_sd                =   1.6149653569500E+00
(PID.TID 0000.0001) %MON exf_swflux_del2              =   3.4933661977945E-04
(PID.TID 0000.0001) %MON exf_swdown_max               =   1.6990645734439E+01
(PID.TID 0000.0001) %MON exf_swdown_min               =   0.0000000000000E+00
(PID.TID 0000.0001) %MON exf_swdown_mean              =   5.6588636573770E-01
(PID.TID 0000.0001) %MON exf_swdown_sd                =   1.7944059521666E+00
(PID.TID 0000.0001) %MON exf_swdown_del2              =   3.8815179975495E-04
(PID.TID 0000.0001) %MON exf_lwdown_max               =   4.0257741237078E+02
(PID.TID 0000.0001) %MON exf_lwdown_min               =   2.4886539463930E+02
(PID.TID 0000.0001) %MON exf_lwdown_mean              =   3.4205956663360E+02
(PID.TID 0000.0001) %MON exf_lwdown_sd                =   2.7537820466709E+01
(PID.TID 0000.0001) %MON exf_lwdown_del2              =   7.4682727733073E-02
(PID.TID 0000.0001) %MON exf_apressure_max            =   1.0297694877168E+05
(PID.TID 0000.0001) %MON exf_apressure_min            =   9.9652061318926E+04
(PID.TID 0000.0001) %MON exf_apressure_mean           =   1.0184443655368E+05
(PID.TID 0000.0001) %MON exf_apressure_sd             =   8.3677717622530E+02
(PID.TID 0000.0001) %MON exf_apressure_del2           =   2.2280394381747E+01
(PID.TID 0000.0001) %MON exf_runoff_max               =   4.4374798712073E-08
(PID.TID 0000.0001) %MON exf_runoff_min               =   0.0000000000000E+00
(PID.TID 0000.0001) %MON exf_runoff_mean              =   1.5884795719908E-09
(PID.TID 0000.0001) %MON exf_runoff_sd                =   5.3901959599983E-09
(PID.TID 0000.0001) %MON exf_runoff_del2              =   1.2741189756369E-12
(PID.TID 0000.0001) // =======================================================
(PID.TID 0000.0001) // End MONITOR EXF statistics
(PID.TID 0000.0001) // =======================================================
 cg2d: Sum(rhs),rhsMax =   9.73951970979467E+02  7.14120664048958E-02
(PID.TID 0000.0001)      cg2d_init_res =   1.60208680098658E+00
(PID.TID 0000.0001)      cg2d_iters(min,last) =      -1     315
(PID.TID 0000.0001)      cg2d_last_res =   6.86226429375478E-12
(PID.TID 0000.0001) // =======================================================
(PID.TID 0000.0001) // Begin MONITOR dynamic field statistics
(PID.TID 0000.0001) // =======================================================
(PID.TID 0000.0001) %MON time_tsnumber                =                     9
(PID.TID 0000.0001) %MON time_secondsf                =   2.1600000000000E+03
(PID.TID 0000.0001) %MON dynstat_eta_max              =   9.7647673482130E-01
(PID.TID 0000.0001) %MON dynstat_eta_min              =  -1.3562982507167E+00
(PID.TID 0000.0001) %MON dynstat_eta_mean             =  -3.3121283138549E-02
(PID.TID 0000.0001) %MON dynstat_eta_sd               =   2.2592948246299E-01
(PID.TID 0000.0001) %MON dynstat_eta_del2             =   2.4502770013766E-06
(PID.TID 0000.0001) %MON dynstat_uvel_max             =   1.2933258996624E+00
(PID.TID 0000.0001) %MON dynstat_uvel_min             =  -7.6095152258641E-01
(PID.TID 0000.0001) %MON dynstat_uvel_mean            =   3.9936750768641E-03
(PID.TID 0000.0001) %MON dynstat_uvel_sd              =   5.2386641315132E-02
(PID.TID 0000.0001) %MON dynstat_uvel_del2            =   4.9949819386194E-07
(PID.TID 0000.0001) %MON dynstat_vvel_max             =   2.3665103372262E+00
(PID.TID 0000.0001) %MON dynstat_vvel_min             =  -8.9057916887493E-01
(PID.TID 0000.0001) %MON dynstat_vvel_mean            =  -3.4469153693376E-03
(PID.TID 0000.0001) %MON dynstat_vvel_sd              =   4.9048997138386E-02
(PID.TID 0000.0001) %MON dynstat_vvel_del2            =   4.5852609733361E-07
(PID.TID 0000.0001) %MON dynstat_wvel_max             =   3.5482334660492E-02
(PID.TID 0000.0001) %MON dynstat_wvel_min             =  -2.9025067752105E-02
(PID.TID 0000.0001) %MON dynstat_wvel_mean            =  -1.2678833044955E-05
(PID.TID 0000.0001) %MON dynstat_wvel_sd              =   5.9754889865425E-04
(PID.TID 0000.0001) %MON dynstat_wvel_del2            =   7.5398724333288E-08
(PID.TID 0000.0001) %MON dynstat_theta_max            =   2.6135605502273E+01
(PID.TID 0000.0001) %MON dynstat_theta_min            =   1.4688645721858E+00
(PID.TID 0000.0001) %MON dynstat_theta_mean           =   5.5098400182577E+00
(PID.TID 0000.0001) %MON dynstat_theta_sd             =   4.7733020893290E+00
(PID.TID 0000.0001) %MON dynstat_theta_del2           =   4.0226559423955E-06
(PID.TID 0000.0001) %MON dynstat_salt_max             =   3.9163771282779E+01
(PID.TID 0000.0001) %MON dynstat_salt_min             =   3.3090860856782E+01
(PID.TID 0000.0001) %MON dynstat_salt_mean            =   3.5173366447394E+01
(PID.TID 0000.0001) %MON dynstat_salt_sd              =   3.7891524297218E-01
(PID.TID 0000.0001) %MON dynstat_salt_del2            =   5.1808513511060E-07
(PID.TID 0000.0001) %MON dynstat_sst_max              =   2.6124269273301E+01
(PID.TID 0000.0001) %MON dynstat_sst_min              =   3.9554340645940E+00
(PID.TID 0000.0001) %MON dynstat_sst_mean             =   1.9636470206522E+01
(PID.TID 0000.0001) %MON dynstat_sst_sd               =   3.6361431997230E+00
(PID.TID 0000.0001) %MON dynstat_sst_del2             =   1.9159444411798E-05
(PID.TID 0000.0001) %MON dynstat_sss_max              =   3.7335378102822E+01
(PID.TID 0000.0001) %MON dynstat_sss_min              =   3.3090860856782E+01
(PID.TID 0000.0001) %MON dynstat_sss_mean             =   3.5868458748576E+01
(PID.TID 0000.0001) %MON dynstat_sss_sd               =   4.8739743990781E-01
(PID.TID 0000.0001) %MON dynstat_sss_del2             =   4.9380635409825E-06
(PID.TID 0000.0001) %MON forcing_qnet_max             =   1.0766913252417E+03
(PID.TID 0000.0001) %MON forcing_qnet_min             =  -1.7847220375709E+02
(PID.TID 0000.0001) %MON forcing_qnet_mean            =   3.2732820326457E+02
(PID.TID 0000.0001) %MON forcing_qnet_sd              =   2.1687979705922E+02
(PID.TID 0000.0001) %MON forcing_qnet_del2            =   1.1821495859127E-03
(PID.TID 0000.0001) %MON forcing_qsw_max              =   0.0000000000000E+00
(PID.TID 0000.0001) %MON forcing_qsw_min              =  -1.5291581160995E+01
(PID.TID 0000.0001) %MON forcing_qsw_mean             =  -5.0929772916393E-01
(PID.TID 0000.0001) %MON forcing_qsw_sd               =   1.6149653569500E+00
(PID.TID 0000.0001) %MON forcing_qsw_del2             =   5.2008370757572E-06
(PID.TID 0000.0001) %MON forcing_empmr_max            =   2.2628994672801E-04
(PID.TID 0000.0001) %MON forcing_empmr_min            =  -1.0638347912025E-03
(PID.TID 0000.0001) %MON forcing_empmr_mean           =   4.1887581891145E-05
(PID.TID 0000.0001) %MON forcing_empmr_sd             =   1.0842359764177E-04
(PID.TID 0000.0001) %MON forcing_empmr_del2           =   9.1324834689390E-10
(PID.TID 0000.0001) %MON forcing_fu_max               =   5.7574620927853E-01
(PID.TID 0000.0001) %MON forcing_fu_min               =  -1.7793770253914E-01
(PID.TID 0000.0001) %MON forcing_fu_mean              =   9.8194176347590E-02
(PID.TID 0000.0001) %MON forcing_fu_sd                =   1.3560518556768E-01
(PID.TID 0000.0001) %MON forcing_fu_del2              =   1.6853343884466E-07
(PID.TID 0000.0001) %MON forcing_fv_max               =   4.1185024115691E-01
(PID.TID 0000.0001) %MON forcing_fv_min               =  -4.7326986890206E-01
(PID.TID 0000.0001) %MON forcing_fv_mean              =   2.7940808624299E-02
(PID.TID 0000.0001) %MON forcing_fv_sd                =   1.5318502627087E-01
(PID.TID 0000.0001) %MON forcing_fv_del2              =   3.1360670220830E-07
(PID.TID 0000.0001) %MON trAdv_CFL_u_max              =   7.8467069001338E-02
(PID.TID 0000.0001) %MON trAdv_CFL_v_max              =   1.4952419084409E-01
(PID.TID 0000.0001) %MON trAdv_CFL_w_max              =   5.1724778387770E-01
(PID.TID 0000.0001) %MON advcfl_uvel_max              =   7.8467067932938E-02
(PID.TID 0000.0001) %MON advcfl_vvel_max              =   1.4956769660982E-01
(PID.TID 0000.0001) %MON advcfl_wvel_max              =   5.1323811113447E-01
(PID.TID 0000.0001) %MON advcfl_W_hf_max              =   5.1724778387770E-01
(PID.TID 0000.0001) %MON pe_b_mean                    =  -7.3307694021533E-04
(PID.TID 0000.0001) %MON ke_max                       =   2.5265882698712E+00
(PID.TID 0000.0001) %MON ke_mean                      =   2.5698955699049E-03
(PID.TID 0000.0001) %MON ke_vol                       =   4.5818637279720E+16
(PID.TID 0000.0001) %MON vort_r_min                   =  -5.1459907894819E-04
(PID.TID 0000.0001) %MON vort_r_max                   =   6.4039631868722E-04
(PID.TID 0000.0001) %MON vort_a_mean                  =   8.2147624682867E-05
(PID.TID 0000.0001) %MON vort_a_sd                    =   1.0140488484650E-05
(PID.TID 0000.0001) %MON vort_p_mean                  =   8.4848846044424E-05
(PID.TID 0000.0001) %MON vort_p_sd                    =   3.4984695433221E-05
(PID.TID 0000.0001) %MON surfExpan_theta_mean         =  -2.6958761838467E-04
(PID.TID 0000.0001) %MON surfExpan_salt_mean          =  -8.0966992913403E-04
(PID.TID 0000.0001) // =======================================================
(PID.TID 0000.0001) // End MONITOR dynamic field statistics
(PID.TID 0000.0001) // =======================================================
(PID.TID 0000.0001) // =======================================================
(PID.TID 0000.0001) // Begin OBCS MONITOR field statistics
(PID.TID 0000.0001) // =======================================================
(PID.TID 0000.0001) %MON obc_N_vVel_max               =   6.9494126870028E-01
(PID.TID 0000.0001) %MON obc_N_vVel_min               =  -3.2329244299176E-01
(PID.TID 0000.0001) %MON obc_N_vVel_mean              =   1.3557624938349E-02
(PID.TID 0000.0001) %MON obc_N_vVel_sd                =   6.4626123524563E-02
(PID.TID 0000.0001) %MON obc_N_vVel_Int               =   1.9407854610568E+08
(PID.TID 0000.0001) %MON obc_S_vVel_max               =   2.3665103372262E+00
(PID.TID 0000.0001) %MON obc_S_vVel_min               =  -2.6286729972578E-01
(PID.TID 0000.0001) %MON obc_S_vVel_mean              =  -2.1737948102404E-03
(PID.TID 0000.0001) %MON obc_S_vVel_sd                =   3.6128657339757E-02
(PID.TID 0000.0001) %MON obc_S_vVel_Int               =  -6.6176617317669E+07
(PID.TID 0000.0001) %MON obc_N_theta_max              =   1.6390068125480E+01
(PID.TID 0000.0001) %MON obc_N_theta_min              =   1.8895911685740E+00
(PID.TID 0000.0001) %MON obc_N_theta_mean             =   5.1589140445384E+00
(PID.TID 0000.0001) %MON obc_N_theta_sd               =   3.4826503119708E+00
(PID.TID 0000.0001) %MON obc_S_theta_max              =   2.5544016569792E+01
(PID.TID 0000.0001) %MON obc_S_theta_min              =   1.4632992074720E+00
(PID.TID 0000.0001) %MON obc_S_theta_mean             =   5.4595505349901E+00
(PID.TID 0000.0001) %MON obc_S_theta_sd               =   5.3559021947514E+00
(PID.TID 0000.0001) %MON obc_N_salt_max               =   3.5910863972689E+01
(PID.TID 0000.0001) %MON obc_N_salt_min               =   3.3295063593745E+01
(PID.TID 0000.0001) %MON obc_N_salt_mean              =   3.5114561652470E+01
(PID.TID 0000.0001) %MON obc_N_salt_sd                =   3.0984825548436E-01
(PID.TID 0000.0001) %MON obc_S_salt_max               =   3.7318284671165E+01
(PID.TID 0000.0001) %MON obc_S_salt_min               =   3.4844694783800E+01
(PID.TID 0000.0001) %MON obc_S_salt_mean              =   3.5168372291584E+01
(PID.TID 0000.0001) %MON obc_S_salt_sd                =   4.5716794818441E-01
(PID.TID 0000.0001) // =======================================================
(PID.TID 0000.0001) // End OBCS MONITOR field statistics
(PID.TID 0000.0001) // =======================================================
(PID.TID 0000.0001) // =======================================================
(PID.TID 0000.0001) // Begin MONITOR EXF statistics
(PID.TID 0000.0001) // =======================================================
(PID.TID 0000.0001) %MON exf_tsnumber                 =                     9
(PID.TID 0000.0001) %MON exf_time_sec                 =   2.1600000000000E+03
(PID.TID 0000.0001) %MON exf_ustress_max              =   5.7364979771513E-01
(PID.TID 0000.0001) %MON exf_ustress_min              =  -1.7745330017498E-01
(PID.TID 0000.0001) %MON exf_ustress_mean             =   9.7929448284132E-02
(PID.TID 0000.0001) %MON exf_ustress_sd               =   1.3531085624051E-01
(PID.TID 0000.0001) %MON exf_ustress_del2             =   1.9461490998652E-07
(PID.TID 0000.0001) %MON exf_vstress_max              =   4.1289651196924E-01
(PID.TID 0000.0001) %MON exf_vstress_min              =  -4.7304251972386E-01
(PID.TID 0000.0001) %MON exf_vstress_mean             =   2.8130132889301E-02
(PID.TID 0000.0001) %MON exf_vstress_sd               =   1.5293472253306E-01
(PID.TID 0000.0001) %MON exf_vstress_del2             =   3.3922949230900E-07
(PID.TID 0000.0001) %MON exf_hflux_max                =   1.0593930418494E+03
(PID.TID 0000.0001) %MON exf_hflux_min                =  -1.3059940809790E+02
(PID.TID 0000.0001) %MON exf_hflux_mean               =   3.2273764844568E+02
(PID.TID 0000.0001) %MON exf_hflux_sd                 =   2.1078444611060E+02
(PID.TID 0000.0001) %MON exf_hflux_del2               =   8.6241593365667E-02
(PID.TID 0000.0001) %MON exf_sflux_max                =   2.2586867348807E-07
(PID.TID 0000.0001) %MON exf_sflux_min                =  -1.0771303332312E-06
(PID.TID 0000.0001) %MON exf_sflux_mean               =   4.1715694270211E-08
(PID.TID 0000.0001) %MON exf_sflux_sd                 =   1.0898583574120E-07
(PID.TID 0000.0001) %MON exf_sflux_del2               =   2.4142726353502E-11
(PID.TID 0000.0001) %MON exf_uwind_max                =   1.5610619249673E+01
(PID.TID 0000.0001) %MON exf_uwind_min                =  -1.0472557909254E+01
(PID.TID 0000.0001) %MON exf_uwind_mean               =   4.3659518051082E+00
(PID.TID 0000.0001) %MON exf_uwind_sd                 =   5.9032309585982E+00
(PID.TID 0000.0001) %MON exf_uwind_del2               =   1.6365797566835E-03
(PID.TID 0000.0001) %MON exf_vwind_max                =   1.4857077023633E+01
(PID.TID 0000.0001) %MON exf_vwind_min                =  -1.3086598413517E+01
(PID.TID 0000.0001) %MON exf_vwind_mean               =   1.7491065120881E+00
(PID.TID 0000.0001) %MON exf_vwind_sd                 =   7.3592262967092E+00
(PID.TID 0000.0001) %MON exf_vwind_del2               =   1.6838259627647E-03
(PID.TID 0000.0001) %MON exf_wspeed_max               =   1.8332312883251E+01
(PID.TID 0000.0001) %MON exf_wspeed_min               =   5.6201990594804E-02
(PID.TID 0000.0001) %MON exf_wspeed_mean              =   9.9211039625964E+00
(PID.TID 0000.0001) %MON exf_wspeed_sd                =   3.5635589451049E+00
(PID.TID 0000.0001) %MON exf_wspeed_del2              =   2.3480587549159E-03
(PID.TID 0000.0001) %MON exf_atemp_max                =   2.9778956976470E+02
(PID.TID 0000.0001) %MON exf_atemp_min                =   2.7434401923060E+02
(PID.TID 0000.0001) %MON exf_atemp_mean               =   2.8987815515612E+02
(PID.TID 0000.0001) %MON exf_atemp_sd                 =   4.3045631087766E+00
(PID.TID 0000.0001) %MON exf_atemp_del2               =   3.7038541840537E-03
(PID.TID 0000.0001) %MON exf_aqh_max                  =   1.4847615711443E-02
(PID.TID 0000.0001) %MON exf_aqh_min                  =   3.1085224092591E-03
(PID.TID 0000.0001) %MON exf_aqh_mean                 =   9.5850800239698E-03
(PID.TID 0000.0001) %MON exf_aqh_sd                   =   2.2577219337669E-03
(PID.TID 0000.0001) %MON exf_aqh_del2                 =   2.1302306658818E-06
(PID.TID 0000.0001) %MON exf_lwflux_max               =   1.5673718899185E+02
(PID.TID 0000.0001) %MON exf_lwflux_min               =  -1.5860441346969E+00
(PID.TID 0000.0001) %MON exf_lwflux_mean              =   7.2738770611441E+01
(PID.TID 0000.0001) %MON exf_lwflux_sd                =   2.7953393224989E+01
(PID.TID 0000.0001) %MON exf_lwflux_del2              =   1.7284875822824E-02
(PID.TID 0000.0001) %MON exf_evap_max                 =   2.4847612313051E-07
(PID.TID 0000.0001) %MON exf_evap_min                 =  -4.1602969278650E-08
(PID.TID 0000.0001) %MON exf_evap_mean                =   7.9316676332646E-08
(PID.TID 0000.0001) %MON exf_evap_sd                  =   5.5663351621914E-08
(PID.TID 0000.0001) %MON exf_evap_del2                =   2.1447812816060E-11
(PID.TID 0000.0001) %MON exf_precip_max               =   1.0760962402638E-06
(PID.TID 0000.0001) %MON exf_precip_min               =   0.0000000000000E+00
(PID.TID 0000.0001) %MON exf_precip_mean              =   3.6012502490445E-08
(PID.TID 0000.0001) %MON exf_precip_sd                =   8.2959451499618E-08
(PID.TID 0000.0001) %MON exf_precip_del2              =   1.8191230476747E-11
(PID.TID 0000.0001) %MON exf_swflux_max               =   0.0000000000000E+00
(PID.TID 0000.0001) %MON exf_swflux_min               =  -1.4236989356788E+01
(PID.TID 0000.0001) %MON exf_swflux_mean              =  -4.7417374784228E-01
(PID.TID 0000.0001) %MON exf_swflux_sd                =   1.5035884357810E+00
(PID.TID 0000.0001) %MON exf_swflux_del2              =   3.2524443910501E-04
(PID.TID 0000.0001) %MON exf_swdown_max               =   1.5818877063098E+01
(PID.TID 0000.0001) %MON exf_swdown_min               =   0.0000000000000E+00
(PID.TID 0000.0001) %MON exf_swdown_mean              =   5.2685971982476E-01
(PID.TID 0000.0001) %MON exf_swdown_sd                =   1.6706538175344E+00
(PID.TID 0000.0001) %MON exf_swdown_del2              =   3.6138271011668E-04
(PID.TID 0000.0001) %MON exf_lwdown_max               =   4.0267940569039E+02
(PID.TID 0000.0001) %MON exf_lwdown_min               =   2.4880546446880E+02
(PID.TID 0000.0001) %MON exf_lwdown_mean              =   3.4206054472078E+02
(PID.TID 0000.0001) %MON exf_lwdown_sd                =   2.7550838209703E+01
(PID.TID 0000.0001) %MON exf_lwdown_del2              =   7.4683576914934E-02
(PID.TID 0000.0001) %MON exf_apressure_max            =   1.0297442353328E+05
(PID.TID 0000.0001) %MON exf_apressure_min            =   9.9650899785534E+04
(PID.TID 0000.0001) %MON exf_apressure_mean           =   1.0184280284593E+05
(PID.TID 0000.0001) %MON exf_apressure_sd             =   8.3622273229672E+02
(PID.TID 0000.0001) %MON exf_apressure_del2           =   2.2280046384320E+01
(PID.TID 0000.0001) %MON exf_runoff_max               =   4.4374798712073E-08
(PID.TID 0000.0001) %MON exf_runoff_min               =   0.0000000000000E+00
(PID.TID 0000.0001) %MON exf_runoff_mean              =   1.5884795719908E-09
(PID.TID 0000.0001) %MON exf_runoff_sd                =   5.3901959599983E-09
(PID.TID 0000.0001) %MON exf_runoff_del2              =   1.2741189756369E-12
(PID.TID 0000.0001) // =======================================================
(PID.TID 0000.0001) // End MONITOR EXF statistics
(PID.TID 0000.0001) // =======================================================
 cg2d: Sum(rhs),rhsMax =   1.14948318187700E+03  7.59641363242655E-02
(PID.TID 0000.0001)      cg2d_init_res =   1.66148306303624E+00
(PID.TID 0000.0001)      cg2d_iters(min,last) =      -1     314
(PID.TID 0000.0001)      cg2d_last_res =   6.90003405643536E-12
(PID.TID 0000.0001) // =======================================================
(PID.TID 0000.0001) // Begin MONITOR dynamic field statistics
(PID.TID 0000.0001) // =======================================================
(PID.TID 0000.0001) %MON time_tsnumber                =                    10
(PID.TID 0000.0001) %MON time_secondsf                =   2.4000000000000E+03
(PID.TID 0000.0001) %MON dynstat_eta_max              =   9.6357354576224E-01
(PID.TID 0000.0001) %MON dynstat_eta_min              =  -1.3469618860526E+00
(PID.TID 0000.0001) %MON dynstat_eta_mean             =  -3.9090590772829E-02
(PID.TID 0000.0001) %MON dynstat_eta_sd               =   2.3754996784241E-01
(PID.TID 0000.0001) %MON dynstat_eta_del2             =   2.4019732772229E-06
(PID.TID 0000.0001) %MON dynstat_uvel_max             =   1.2889454332526E+00
(PID.TID 0000.0001) %MON dynstat_uvel_min             =  -7.4318817720168E-01
(PID.TID 0000.0001) %MON dynstat_uvel_mean            =   3.9111503168828E-03
(PID.TID 0000.0001) %MON dynstat_uvel_sd              =   5.2375724525469E-02
(PID.TID 0000.0001) %MON dynstat_uvel_del2            =   5.0897940951966E-07
(PID.TID 0000.0001) %MON dynstat_vvel_max             =   2.4281312600680E+00
(PID.TID 0000.0001) %MON dynstat_vvel_min             =  -8.9043633280923E-01
(PID.TID 0000.0001) %MON dynstat_vvel_mean            =  -3.7213797377133E-03
(PID.TID 0000.0001) %MON dynstat_vvel_sd              =   4.9180875174237E-02
(PID.TID 0000.0001) %MON dynstat_vvel_del2            =   4.6703791638773E-07
(PID.TID 0000.0001) %MON dynstat_wvel_max             =   3.4995151999641E-02
(PID.TID 0000.0001) %MON dynstat_wvel_min             =  -3.0249793162949E-02
(PID.TID 0000.0001) %MON dynstat_wvel_mean            =  -1.3822697757394E-05
(PID.TID 0000.0001) %MON dynstat_wvel_sd              =   6.0143335489594E-04
(PID.TID 0000.0001) %MON dynstat_wvel_del2            =   7.5211646819752E-08
(PID.TID 0000.0001) %MON dynstat_theta_max            =   2.6135342820349E+01
(PID.TID 0000.0001) %MON dynstat_theta_min            =   1.4688647224712E+00
(PID.TID 0000.0001) %MON dynstat_theta_mean           =   5.5098449763159E+00
(PID.TID 0000.0001) %MON dynstat_theta_sd             =   4.7732900620676E+00
(PID.TID 0000.0001) %MON dynstat_theta_del2           =   4.0258914927755E-06
(PID.TID 0000.0001) %MON dynstat_salt_max             =   3.9160061280642E+01
(PID.TID 0000.0001) %MON dynstat_salt_min             =   3.3091004099614E+01
(PID.TID 0000.0001) %MON dynstat_salt_mean            =   3.5173366433177E+01
(PID.TID 0000.0001) %MON dynstat_salt_sd              =   3.7891638569958E-01
(PID.TID 0000.0001) %MON dynstat_salt_del2            =   5.2152365674209E-07
(PID.TID 0000.0001) %MON dynstat_sst_max              =   2.6124925702208E+01
(PID.TID 0000.0001) %MON dynstat_sst_min              =   3.9397864339254E+00
(PID.TID 0000.0001) %MON dynstat_sst_mean             =   1.9635592673157E+01
(PID.TID 0000.0001) %MON dynstat_sst_sd               =   3.6360100072568E+00
(PID.TID 0000.0001) %MON dynstat_sst_del2             =   1.9186166965060E-05
(PID.TID 0000.0001) %MON dynstat_sss_max              =   3.7335427069875E+01
(PID.TID 0000.0001) %MON dynstat_sss_min              =   3.3091004099614E+01
(PID.TID 0000.0001) %MON dynstat_sss_mean             =   3.5868495228681E+01
(PID.TID 0000.0001) %MON dynstat_sss_sd               =   4.8741241852189E-01
(PID.TID 0000.0001) %MON dynstat_sss_del2             =   4.9307183616734E-06
(PID.TID 0000.0001) %MON forcing_qnet_max             =   1.0753116025049E+03
(PID.TID 0000.0001) %MON forcing_qnet_min             =  -1.8033164293929E+02
(PID.TID 0000.0001) %MON forcing_qnet_mean            =   3.2707890546601E+02
(PID.TID 0000.0001) %MON forcing_qnet_sd              =   2.1660278924370E+02
(PID.TID 0000.0001) %MON forcing_qnet_del2            =   1.1804097512158E-03
(PID.TID 0000.0001) %MON forcing_qsw_max              =   0.0000000000000E+00
(PID.TID 0000.0001) %MON forcing_qsw_min              =  -1.4236989356788E+01
(PID.TID 0000.0001) %MON forcing_qsw_mean             =  -4.7417374784228E-01
(PID.TID 0000.0001) %MON forcing_qsw_sd               =   1.5035884357810E+00
(PID.TID 0000.0001) %MON forcing_qsw_del2             =   4.8421586567395E-06
(PID.TID 0000.0001) %MON forcing_empmr_max            =   2.2586867348807E-04
(PID.TID 0000.0001) %MON forcing_empmr_min            =  -1.0771303332312E-03
(PID.TID 0000.0001) %MON forcing_empmr_mean           =   4.1715694270211E-05
(PID.TID 0000.0001) %MON forcing_empmr_sd             =   1.0898583574120E-04
(PID.TID 0000.0001) %MON forcing_empmr_del2           =   9.2659837154915E-10
(PID.TID 0000.0001) %MON forcing_fu_max               =   5.7360336481696E-01
(PID.TID 0000.0001) %MON forcing_fu_min               =  -1.7744531425996E-01
(PID.TID 0000.0001) %MON forcing_fu_mean              =   9.8035670815092E-02
(PID.TID 0000.0001) %MON forcing_fu_sd                =   1.3533938586340E-01
(PID.TID 0000.0001) %MON forcing_fu_del2              =   1.6897809199538E-07
(PID.TID 0000.0001) %MON forcing_fv_max               =   4.1282742557984E-01
(PID.TID 0000.0001) %MON forcing_fv_min               =  -4.7303533925676E-01
(PID.TID 0000.0001) %MON forcing_fv_mean              =   2.8063663515410E-02
(PID.TID 0000.0001) %MON forcing_fv_sd                =   1.5294382733523E-01
(PID.TID 0000.0001) %MON forcing_fv_del2              =   3.1559440313493E-07
(PID.TID 0000.0001) %MON trAdv_CFL_u_max              =   7.8201302762429E-02
(PID.TID 0000.0001) %MON trAdv_CFL_v_max              =   1.5341761082289E-01
(PID.TID 0000.0001) %MON trAdv_CFL_w_max              =   4.9788573003064E-01
(PID.TID 0000.0001) %MON advcfl_uvel_max              =   7.8201301697648E-02
(PID.TID 0000.0001) %MON advcfl_vvel_max              =   1.5346224942349E-01
(PID.TID 0000.0001) %MON advcfl_wvel_max              =   4.9402615072807E-01
(PID.TID 0000.0001) %MON advcfl_W_hf_max              =   4.9788573003064E-01
(PID.TID 0000.0001) %MON pe_b_mean                    =  -8.7093066214871E-04
(PID.TID 0000.0001) %MON ke_max                       =   2.6566699762314E+00
(PID.TID 0000.0001) %MON ke_mean                      =   2.5764198894758E-03
(PID.TID 0000.0001) %MON ke_vol                       =   4.5818637279720E+16
(PID.TID 0000.0001) %MON vort_r_min                   =  -5.1559698216221E-04
(PID.TID 0000.0001) %MON vort_r_max                   =   6.8037939655737E-04
(PID.TID 0000.0001) %MON vort_a_mean                  =   8.2147623875456E-05
(PID.TID 0000.0001) %MON vort_a_sd                    =   1.0144057722108E-05
(PID.TID 0000.0001) %MON vort_p_mean                  =   8.4848845210464E-05
(PID.TID 0000.0001) %MON vort_p_sd                    =   3.4987621946989E-05
(PID.TID 0000.0001) %MON surfExpan_theta_mean         =  -3.1399763399362E-04
(PID.TID 0000.0001) %MON surfExpan_salt_mean          =  -8.7735515365311E-04
(PID.TID 0000.0001) // =======================================================
(PID.TID 0000.0001) // End MONITOR dynamic field statistics
(PID.TID 0000.0001) // =======================================================
(PID.TID 0000.0001) // =======================================================
(PID.TID 0000.0001) // Begin OBCS MONITOR field statistics
(PID.TID 0000.0001) // =======================================================
(PID.TID 0000.0001) %MON obc_N_vVel_max               =   6.9478873976617E-01
(PID.TID 0000.0001) %MON obc_N_vVel_min               =  -3.2356856874258E-01
(PID.TID 0000.0001) %MON obc_N_vVel_mean              =   1.3535370834126E-02
(PID.TID 0000.0001) %MON obc_N_vVel_sd                =   6.4607763335849E-02
(PID.TID 0000.0001) %MON obc_N_vVel_Int               =   1.9375997672409E+08
(PID.TID 0000.0001) %MON obc_S_vVel_max               =   2.4281312600680E+00
(PID.TID 0000.0001) %MON obc_S_vVel_min               =  -2.6295159281772E-01
(PID.TID 0000.0001) %MON obc_S_vVel_mean              =  -2.8686933837102E-03
(PID.TID 0000.0001) %MON obc_S_vVel_sd                =   3.6192046919410E-02
(PID.TID 0000.0001) %MON obc_S_vVel_Int               =  -8.7331344872667E+07
(PID.TID 0000.0001) %MON obc_N_theta_max              =   1.6389980023293E+01
(PID.TID 0000.0001) %MON obc_N_theta_min              =   1.8895912176394E+00
(PID.TID 0000.0001) %MON obc_N_theta_mean             =   5.1589066603884E+00
(PID.TID 0000.0001) %MON obc_N_theta_sd               =   3.4826410211044E+00
(PID.TID 0000.0001) %MON obc_S_theta_max              =   2.5543913821012E+01
(PID.TID 0000.0001) %MON obc_S_theta_min              =   1.4632996037592E+00
(PID.TID 0000.0001) %MON obc_S_theta_mean             =   5.4595497299655E+00
(PID.TID 0000.0001) %MON obc_S_theta_sd               =   5.3558983237118E+00
(PID.TID 0000.0001) %MON obc_N_salt_max               =   3.5910863564326E+01
(PID.TID 0000.0001) %MON obc_N_salt_min               =   3.3295069096378E+01
(PID.TID 0000.0001) %MON obc_N_salt_mean              =   3.5114561356483E+01
(PID.TID 0000.0001) %MON obc_N_salt_sd                =   3.0984813633341E-01
(PID.TID 0000.0001) %MON obc_S_salt_max               =   3.7318277786781E+01
(PID.TID 0000.0001) %MON obc_S_salt_min               =   3.4844694836021E+01
(PID.TID 0000.0001) %MON obc_S_salt_mean              =   3.5168372219668E+01
(PID.TID 0000.0001) %MON obc_S_salt_sd                =   4.5716759715695E-01
(PID.TID 0000.0001) // =======================================================
(PID.TID 0000.0001) // End OBCS MONITOR field statistics
(PID.TID 0000.0001) // =======================================================
(PID.TID 0000.0001) // =======================================================
(PID.TID 0000.0001) // Begin MONITOR EXF statistics
(PID.TID 0000.0001) // =======================================================
(PID.TID 0000.0001) %MON exf_tsnumber                 =                    10
(PID.TID 0000.0001) %MON exf_time_sec                 =   2.4000000000000E+03
(PID.TID 0000.0001) %MON exf_ustress_max              =   5.7156062983648E-01
(PID.TID 0000.0001) %MON exf_ustress_min              =  -1.7698745837939E-01
(PID.TID 0000.0001) %MON exf_ustress_mean             =   9.7779670853553E-02
(PID.TID 0000.0001) %MON exf_ustress_sd               =   1.3506586271877E-01
(PID.TID 0000.0001) %MON exf_ustress_del2             =   1.9611355282239E-07
(PID.TID 0000.0001) %MON exf_vstress_max              =   4.1386992145344E-01
(PID.TID 0000.0001) %MON exf_vstress_min              =  -4.7283131599533E-01
(PID.TID 0000.0001) %MON exf_vstress_mean             =   2.8256770041731E-02
(PID.TID 0000.0001) %MON exf_vstress_sd               =   1.5271656404766E-01
(PID.TID 0000.0001) %MON exf_vstress_del2             =   3.4228153902770E-07
(PID.TID 0000.0001) %MON exf_hflux_max                =   1.0581077298440E+03
(PID.TID 0000.0001) %MON exf_hflux_min                =  -1.2981936568777E+02
(PID.TID 0000.0001) %MON exf_hflux_mean               =   3.2251683829921E+02
(PID.TID 0000.0001) %MON exf_hflux_sd                 =   2.1051139589176E+02
(PID.TID 0000.0001) %MON exf_hflux_del2               =   8.6157001856646E-02
(PID.TID 0000.0001) %MON exf_sflux_max                =   2.2545655717073E-07
(PID.TID 0000.0001) %MON exf_sflux_min                =  -1.0904386277250E-06
(PID.TID 0000.0001) %MON exf_sflux_mean               =   4.1548158486402E-08
(PID.TID 0000.0001) %MON exf_sflux_sd                 =   1.0957486941533E-07
(PID.TID 0000.0001) %MON exf_sflux_del2               =   2.4228366706202E-11
(PID.TID 0000.0001) %MON exf_uwind_max                =   1.5572525929517E+01
(PID.TID 0000.0001) %MON exf_uwind_min                =  -1.0454869306353E+01
(PID.TID 0000.0001) %MON exf_uwind_mean               =   4.3648318169095E+00
(PID.TID 0000.0001) %MON exf_uwind_sd                 =   5.9002353279446E+00
(PID.TID 0000.0001) %MON exf_uwind_del2               =   1.6361425172488E-03
(PID.TID 0000.0001) %MON exf_vwind_max                =   1.4834982339970E+01
(PID.TID 0000.0001) %MON exf_vwind_min                =  -1.3077928467196E+01
(PID.TID 0000.0001) %MON exf_vwind_mean               =   1.7550517479934E+00
(PID.TID 0000.0001) %MON exf_vwind_sd                 =   7.3534796916287E+00
(PID.TID 0000.0001) %MON exf_vwind_del2               =   1.6828694578560E-03
(PID.TID 0000.0001) %MON exf_wspeed_max               =   1.8317527844808E+01
(PID.TID 0000.0001) %MON exf_wspeed_min               =   3.4199267005066E-02
(PID.TID 0000.0001) %MON exf_wspeed_mean              =   9.9165493179570E+00
(PID.TID 0000.0001) %MON exf_wspeed_sd                =   3.5609624475537E+00
(PID.TID 0000.0001) %MON exf_wspeed_del2              =   2.3470687044501E-03
(PID.TID 0000.0001) %MON exf_atemp_max                =   2.9778911573686E+02
(PID.TID 0000.0001) %MON exf_atemp_min                =   2.7435514639524E+02
(PID.TID 0000.0001) %MON exf_atemp_mean               =   2.8987822866924E+02
(PID.TID 0000.0001) %MON exf_atemp_sd                 =   4.3013019746491E+00
(PID.TID 0000.0001) %MON exf_atemp_del2               =   3.7038396864252E-03
(PID.TID 0000.0001) %MON exf_aqh_max                  =   1.4869220369846E-02
(PID.TID 0000.0001) %MON exf_aqh_min                  =   3.1160695002410E-03
(PID.TID 0000.0001) %MON exf_aqh_mean                 =   9.5846968414445E-03
(PID.TID 0000.0001) %MON exf_aqh_sd                   =   2.2555786417191E-03
(PID.TID 0000.0001) %MON exf_aqh_del2                 =   2.1301065234648E-06
(PID.TID 0000.0001) %MON exf_lwflux_max               =   1.5652649050204E+02
(PID.TID 0000.0001) %MON exf_lwflux_min               =  -2.2479640628751E+00
(PID.TID 0000.0001) %MON exf_lwflux_mean              =   7.2732946746603E+01
(PID.TID 0000.0001) %MON exf_lwflux_sd                =   2.7985352593385E+01
(PID.TID 0000.0001) %MON exf_lwflux_del2              =   1.7284967440998E-02
(PID.TID 0000.0001) %MON exf_evap_max                 =   2.4818851171779E-07
(PID.TID 0000.0001) %MON exf_evap_min                 =  -4.1460454777951E-08
(PID.TID 0000.0001) %MON exf_evap_mean                =   7.9243998729051E-08
(PID.TID 0000.0001) %MON exf_evap_sd                  =   5.5580511468184E-08
(PID.TID 0000.0001) %MON exf_evap_del2                =   2.1423022678419E-11
(PID.TID 0000.0001) %MON exf_precip_max               =   1.0892065283557E-06
(PID.TID 0000.0001) %MON exf_precip_min               =   0.0000000000000E+00
(PID.TID 0000.0001) %MON exf_precip_mean              =   3.6107360670658E-08
(PID.TID 0000.0001) %MON exf_precip_sd                =   8.3647834736976E-08
(PID.TID 0000.0001) %MON exf_precip_del2              =   1.8320848428831E-11
(PID.TID 0000.0001) %MON exf_swflux_max               =   0.0000000000000E+00
(PID.TID 0000.0001) %MON exf_swflux_min               =  -1.3182397552582E+01
(PID.TID 0000.0001) %MON exf_swflux_mean              =  -4.3904976652063E-01
(PID.TID 0000.0001) %MON exf_swflux_sd                =   1.3922115146120E+00
(PID.TID 0000.0001) %MON exf_swflux_del2              =   3.0115225843056E-04
(PID.TID 0000.0001) %MON exf_swdown_max               =   1.4647108391757E+01
(PID.TID 0000.0001) %MON exf_swdown_min               =   0.0000000000000E+00
(PID.TID 0000.0001) %MON exf_swdown_mean              =   4.8783307391181E-01
(PID.TID 0000.0001) %MON exf_swdown_sd                =   1.5469016829023E+00
(PID.TID 0000.0001) %MON exf_swdown_del2              =   3.3461362047840E-04
(PID.TID 0000.0001) %MON exf_lwdown_max               =   4.0278139901000E+02
(PID.TID 0000.0001) %MON exf_lwdown_min               =   2.4874553429829E+02
(PID.TID 0000.0001) %MON exf_lwdown_mean              =   3.4206152280796E+02
(PID.TID 0000.0001) %MON exf_lwdown_sd                =   2.7567035306648E+01
(PID.TID 0000.0001) %MON exf_lwdown_del2              =   7.4684488646118E-02
(PID.TID 0000.0001) %MON exf_apressure_max            =   1.0297189829487E+05
(PID.TID 0000.0001) %MON exf_apressure_min            =   9.9649738252143E+04
(PID.TID 0000.0001) %MON exf_apressure_mean           =   1.0184116913818E+05
(PID.TID 0000.0001) %MON exf_apressure_sd             =   8.3567339290367E+02
(PID.TID 0000.0001) %MON exf_apressure_del2           =   2.2279698397228E+01
(PID.TID 0000.0001) %MON exf_runoff_max               =   4.4374798712073E-08
(PID.TID 0000.0001) %MON exf_runoff_min               =   0.0000000000000E+00
(PID.TID 0000.0001) %MON exf_runoff_mean              =   1.5884795719908E-09
(PID.TID 0000.0001) %MON exf_runoff_sd                =   5.3901959599983E-09
(PID.TID 0000.0001) %MON exf_runoff_del2              =   1.2741189756369E-12
(PID.TID 0000.0001) // =======================================================
(PID.TID 0000.0001) // End MONITOR EXF statistics
(PID.TID 0000.0001) // =======================================================
 cg2d: Sum(rhs),rhsMax =   1.33781218030144E+03  7.91440050319349E-02
(PID.TID 0000.0001)      cg2d_init_res =   1.62973604051070E+00
(PID.TID 0000.0001)      cg2d_iters(min,last) =      -1     313
(PID.TID 0000.0001)      cg2d_last_res =   6.89613701076691E-12
(PID.TID 0000.0001) // =======================================================
(PID.TID 0000.0001) // Begin MONITOR dynamic field statistics
(PID.TID 0000.0001) // =======================================================
(PID.TID 0000.0001) %MON time_tsnumber                =                    11
(PID.TID 0000.0001) %MON time_secondsf                =   2.6400000000000E+03
(PID.TID 0000.0001) %MON dynstat_eta_max              =   9.1707940554720E-01
(PID.TID 0000.0001) %MON dynstat_eta_min              =  -1.2127620548316E+00
(PID.TID 0000.0001) %MON dynstat_eta_mean             =  -4.5495114061325E-02
(PID.TID 0000.0001) %MON dynstat_eta_sd               =   2.4853782816481E-01
(PID.TID 0000.0001) %MON dynstat_eta_del2             =   2.3479767912612E-06
(PID.TID 0000.0001) %MON dynstat_uvel_max             =   1.2834363486145E+00
(PID.TID 0000.0001) %MON dynstat_uvel_min             =  -7.2157365106015E-01
(PID.TID 0000.0001) %MON dynstat_uvel_mean            =   3.8243705170554E-03
(PID.TID 0000.0001) %MON dynstat_uvel_sd              =   5.2374369763472E-02
(PID.TID 0000.0001) %MON dynstat_uvel_del2            =   5.1760459944819E-07
(PID.TID 0000.0001) %MON dynstat_vvel_max             =   2.4892628007229E+00
(PID.TID 0000.0001) %MON dynstat_vvel_min             =  -8.8965631694862E-01
(PID.TID 0000.0001) %MON dynstat_vvel_mean            =  -3.9809587468557E-03
(PID.TID 0000.0001) %MON dynstat_vvel_sd              =   4.9291957172777E-02
(PID.TID 0000.0001) %MON dynstat_vvel_del2            =   4.7474525352568E-07
(PID.TID 0000.0001) %MON dynstat_wvel_max             =   3.4426258572646E-02
(PID.TID 0000.0001) %MON dynstat_wvel_min             =  -3.1225113583422E-02
(PID.TID 0000.0001) %MON dynstat_wvel_mean            =  -1.4949646400671E-05
(PID.TID 0000.0001) %MON dynstat_wvel_sd              =   6.0429874194825E-04
(PID.TID 0000.0001) %MON dynstat_wvel_del2            =   7.4004345125480E-08
(PID.TID 0000.0001) %MON dynstat_theta_max            =   2.6135520930467E+01
(PID.TID 0000.0001) %MON dynstat_theta_min            =   1.4688648824229E+00
(PID.TID 0000.0001) %MON dynstat_theta_mean           =   5.5098519043545E+00
(PID.TID 0000.0001) %MON dynstat_theta_sd             =   4.7732809503211E+00
(PID.TID 0000.0001) %MON dynstat_theta_del2           =   4.0289236541764E-06
(PID.TID 0000.0001) %MON dynstat_salt_max             =   3.9156172778909E+01
(PID.TID 0000.0001) %MON dynstat_salt_min             =   3.3091147176286E+01
(PID.TID 0000.0001) %MON dynstat_salt_mean            =   3.5173366564246E+01
(PID.TID 0000.0001) %MON dynstat_salt_sd              =   3.7891764142086E-01
(PID.TID 0000.0001) %MON dynstat_salt_del2            =   5.2464072835226E-07
(PID.TID 0000.0001) %MON dynstat_sst_max              =   2.6125662799381E+01
(PID.TID 0000.0001) %MON dynstat_sst_min              =   3.9240577304259E+00
(PID.TID 0000.0001) %MON dynstat_sst_mean             =   1.9634763217163E+01
(PID.TID 0000.0001) %MON dynstat_sst_sd               =   3.6358857483704E+00
(PID.TID 0000.0001) %MON dynstat_sst_del2             =   1.9219089428608E-05
(PID.TID 0000.0001) %MON dynstat_sss_max              =   3.7335480313320E+01
(PID.TID 0000.0001) %MON dynstat_sss_min              =   3.3091147176286E+01
(PID.TID 0000.0001) %MON dynstat_sss_mean             =   3.5868529611282E+01
(PID.TID 0000.0001) %MON dynstat_sss_sd               =   4.8742633087798E-01
(PID.TID 0000.0001) %MON dynstat_sss_del2             =   4.9238679484240E-06
(PID.TID 0000.0001) %MON forcing_qnet_max             =   1.0739831154386E+03
(PID.TID 0000.0001) %MON forcing_qnet_min             =  -1.8219531091799E+02
(PID.TID 0000.0001) %MON forcing_qnet_mean            =   3.2684490559210E+02
(PID.TID 0000.0001) %MON forcing_qnet_sd              =   2.1634010123065E+02
(PID.TID 0000.0001) %MON forcing_qnet_del2            =   1.1786455827361E-03
(PID.TID 0000.0001) %MON forcing_qsw_max              =   0.0000000000000E+00
(PID.TID 0000.0001) %MON forcing_qsw_min              =  -1.3182397552582E+01
(PID.TID 0000.0001) %MON forcing_qsw_mean             =  -4.3904976652063E-01
(PID.TID 0000.0001) %MON forcing_qsw_sd               =   1.3922115146120E+00
(PID.TID 0000.0001) %MON forcing_qsw_del2             =   4.4834802377217E-06
(PID.TID 0000.0001) %MON forcing_empmr_max            =   2.2545655717073E-04
(PID.TID 0000.0001) %MON forcing_empmr_min            =  -1.0904386277250E-03
(PID.TID 0000.0001) %MON forcing_empmr_mean           =   4.1548158486402E-05
(PID.TID 0000.0001) %MON forcing_empmr_sd             =   1.0957486941533E-04
(PID.TID 0000.0001) %MON forcing_empmr_del2           =   9.4070782685366E-10
(PID.TID 0000.0001) %MON forcing_fu_max               =   5.7150464976484E-01
(PID.TID 0000.0001) %MON forcing_fu_min               =  -1.7697245098436E-01
(PID.TID 0000.0001) %MON forcing_fu_mean              =   9.7885658975202E-02
(PID.TID 0000.0001) %MON forcing_fu_sd                =   1.3509426700241E-01
(PID.TID 0000.0001) %MON forcing_fu_del2              =   1.6959031110932E-07
(PID.TID 0000.0001) %MON forcing_fv_max               =   4.1380434952100E-01
(PID.TID 0000.0001) %MON forcing_fv_min               =  -4.7282437942917E-01
(PID.TID 0000.0001) %MON forcing_fv_mean              =   2.8190178460823E-02
(PID.TID 0000.0001) %MON forcing_fv_sd                =   1.5272517841639E-01
(PID.TID 0000.0001) %MON forcing_fv_del2              =   3.1810999845454E-07
(PID.TID 0000.0001) %MON trAdv_CFL_u_max              =   7.7867062394594E-02
(PID.TID 0000.0001) %MON trAdv_CFL_v_max              =   1.5728010996675E-01
(PID.TID 0000.0001) %MON trAdv_CFL_w_max              =   5.0142314730108E-01
(PID.TID 0000.0001) %MON advcfl_uvel_max              =   7.7867061334364E-02
(PID.TID 0000.0001) %MON advcfl_vvel_max              =   1.5732587240546E-01
(PID.TID 0000.0001) %MON advcfl_wvel_max              =   4.9306609484606E-01
(PID.TID 0000.0001) %MON advcfl_W_hf_max              =   5.0142314730108E-01
(PID.TID 0000.0001) %MON pe_b_mean                    =  -1.0194464968203E-03
(PID.TID 0000.0001) %MON ke_max                       =   2.7943445289395E+00
(PID.TID 0000.0001) %MON ke_mean                      =   2.5824447193216E-03
(PID.TID 0000.0001) %MON ke_vol                       =   4.5818637279720E+16
(PID.TID 0000.0001) %MON vort_r_min                   =  -5.1590232785410E-04
(PID.TID 0000.0001) %MON vort_r_max                   =   7.1368174749490E-04
(PID.TID 0000.0001) %MON vort_a_mean                  =   8.2147623060782E-05
(PID.TID 0000.0001) %MON vort_a_sd                    =   1.0147558347058E-05
(PID.TID 0000.0001) %MON vort_p_mean                  =   8.4848844369001E-05
(PID.TID 0000.0001) %MON vort_p_sd                    =   3.4991016934477E-05
(PID.TID 0000.0001) %MON surfExpan_theta_mean         =  -3.5720858063239E-04
(PID.TID 0000.0001) %MON surfExpan_salt_mean          =  -9.4366965596085E-04
(PID.TID 0000.0001) // =======================================================
(PID.TID 0000.0001) // End MONITOR dynamic field statistics
(PID.TID 0000.0001) // =======================================================
(PID.TID 0000.0001) // =======================================================
(PID.TID 0000.0001) // Begin OBCS MONITOR field statistics
(PID.TID 0000.0001) // =======================================================
(PID.TID 0000.0001) %MON obc_N_vVel_max               =   6.9462511267569E-01
(PID.TID 0000.0001) %MON obc_N_vVel_min               =  -3.2386652640102E-01
(PID.TID 0000.0001) %MON obc_N_vVel_mean              =   1.3498598564145E-02
(PID.TID 0000.0001) %MON obc_N_vVel_sd                =   6.4587781615047E-02
(PID.TID 0000.0001) %MON obc_N_vVel_Int               =   1.9323357857342E+08
(PID.TID 0000.0001) %MON obc_S_vVel_max               =   2.4892628007229E+00
(PID.TID 0000.0001) %MON obc_S_vVel_min               =  -2.6302812209586E-01
(PID.TID 0000.0001) %MON obc_S_vVel_mean              =  -3.5591813948131E-03
(PID.TID 0000.0001) %MON obc_S_vVel_sd                =   3.6260055291612E-02
(PID.TID 0000.0001) %MON obc_S_vVel_Int               =  -1.0835180212003E+08
(PID.TID 0000.0001) %MON obc_N_theta_max              =   1.6389891921106E+01
(PID.TID 0000.0001) %MON obc_N_theta_min              =   1.8895912667048E+00
(PID.TID 0000.0001) %MON obc_N_theta_mean             =   5.1588992762384E+00
(PID.TID 0000.0001) %MON obc_N_theta_sd               =   3.4826317304761E+00
(PID.TID 0000.0001) %MON obc_S_theta_max              =   2.5543811072233E+01
(PID.TID 0000.0001) %MON obc_S_theta_min              =   1.4633000000465E+00
(PID.TID 0000.0001) %MON obc_S_theta_mean             =   5.4595489249409E+00
(PID.TID 0000.0001) %MON obc_S_theta_sd               =   5.3558944527081E+00
(PID.TID 0000.0001) %MON obc_N_salt_max               =   3.5910863155963E+01
(PID.TID 0000.0001) %MON obc_N_salt_min               =   3.3295074599012E+01
(PID.TID 0000.0001) %MON obc_N_salt_mean              =   3.5114561060497E+01
(PID.TID 0000.0001) %MON obc_N_salt_sd                =   3.0984801722386E-01
(PID.TID 0000.0001) %MON obc_S_salt_max               =   3.7318270902396E+01
(PID.TID 0000.0001) %MON obc_S_salt_min               =   3.4844694888241E+01
(PID.TID 0000.0001) %MON obc_S_salt_mean              =   3.5168372147751E+01
(PID.TID 0000.0001) %MON obc_S_salt_sd                =   4.5716724612664E-01
(PID.TID 0000.0001) // =======================================================
(PID.TID 0000.0001) // End OBCS MONITOR field statistics
(PID.TID 0000.0001) // =======================================================
(PID.TID 0000.0001) // =======================================================
(PID.TID 0000.0001) // Begin MONITOR EXF statistics
(PID.TID 0000.0001) // =======================================================
(PID.TID 0000.0001) %MON exf_tsnumber                 =                    11
(PID.TID 0000.0001) %MON exf_time_sec                 =   2.6400000000000E+03
(PID.TID 0000.0001) %MON exf_ustress_max              =   5.6950653123802E-01
(PID.TID 0000.0001) %MON exf_ustress_min              =  -1.7654011801659E-01
(PID.TID 0000.0001) %MON exf_ustress_mean             =   9.7637865337937E-02
(PID.TID 0000.0001) %MON exf_ustress_sd               =   1.3484022804703E-01
(PID.TID 0000.0001) %MON exf_ustress_del2             =   1.9715403980391E-07
(PID.TID 0000.0001) %MON exf_vstress_max              =   4.1482422608435E-01
(PID.TID 0000.0001) %MON exf_vstress_min              =  -4.7262988421804E-01
(PID.TID 0000.0001) %MON exf_vstress_mean             =   2.8386920727109E-02
(PID.TID 0000.0001) %MON exf_vstress_sd               =   1.5251940729493E-01
(PID.TID 0000.0001) %MON exf_vstress_del2             =   3.4549606552439E-07
(PID.TID 0000.0001) %MON exf_hflux_max                =   1.0568665175331E+03
(PID.TID 0000.0001) %MON exf_hflux_min                =  -1.2902764553652E+02
(PID.TID 0000.0001) %MON exf_hflux_mean               =   3.2230934922886E+02
(PID.TID 0000.0001) %MON exf_hflux_sd                 =   2.1025109051579E+02
(PID.TID 0000.0001) %MON exf_hflux_del2               =   8.6077127379864E-02
(PID.TID 0000.0001) %MON exf_sflux_max                =   2.2505280241932E-07
(PID.TID 0000.0001) %MON exf_sflux_min                =  -1.1037394985404E-06
(PID.TID 0000.0001) %MON exf_sflux_mean               =   4.1384572791702E-08
(PID.TID 0000.0001) %MON exf_sflux_sd                 =   1.1019005158014E-07
(PID.TID 0000.0001) %MON exf_sflux_del2               =   2.4319589969525E-11
(PID.TID 0000.0001) %MON exf_uwind_max                =   1.5565508744594E+01
(PID.TID 0000.0001) %MON exf_uwind_min                =  -1.0437475851630E+01
(PID.TID 0000.0001) %MON exf_uwind_mean               =   4.3637592672155E+00
(PID.TID 0000.0001) %MON exf_uwind_sd                 =   5.8975052586869E+00
(PID.TID 0000.0001) %MON exf_uwind_del2               =   1.6357643847329E-03
(PID.TID 0000.0001) %MON exf_vwind_max                =   1.4814753948475E+01
(PID.TID 0000.0001) %MON exf_vwind_min                =  -1.3069734384611E+01
(PID.TID 0000.0001) %MON exf_vwind_mean               =   1.7610031339567E+00
(PID.TID 0000.0001) %MON exf_vwind_sd                 =   7.3481034851809E+00
(PID.TID 0000.0001) %MON exf_vwind_del2               =   1.6820007050648E-03
(PID.TID 0000.0001) %MON exf_wspeed_max               =   1.8303169465637E+01
(PID.TID 0000.0001) %MON exf_wspeed_min               =   3.8483260625941E-02
(PID.TID 0000.0001) %MON exf_wspeed_mean              =   9.9123528308577E+00
(PID.TID 0000.0001) %MON exf_wspeed_sd                =   3.5586488224843E+00
(PID.TID 0000.0001) %MON exf_wspeed_del2              =   2.3461827984659E-03
(PID.TID 0000.0001) %MON exf_atemp_max                =   2.9778866170902E+02
(PID.TID 0000.0001) %MON exf_atemp_min                =   2.7436169403858E+02
(PID.TID 0000.0001) %MON exf_atemp_mean               =   2.8987830218236E+02
(PID.TID 0000.0001) %MON exf_atemp_sd                 =   4.2980748552613E+00
(PID.TID 0000.0001) %MON exf_atemp_del2               =   3.7038273699764E-03
(PID.TID 0000.0001) %MON exf_aqh_max                  =   1.4890825028249E-02
(PID.TID 0000.0001) %MON exf_aqh_min                  =   3.1236165912228E-03
(PID.TID 0000.0001) %MON exf_aqh_mean                 =   9.5843136589192E-03
(PID.TID 0000.0001) %MON exf_aqh_sd                   =   2.2534833431380E-03
(PID.TID 0000.0001) %MON exf_aqh_del2                 =   2.1299850322852E-06
(PID.TID 0000.0001) %MON exf_lwflux_max               =   1.5631597875622E+02
(PID.TID 0000.0001) %MON exf_lwflux_min               =  -2.9093413275248E+00
(PID.TID 0000.0001) %MON exf_lwflux_mean              =   7.2727390350989E+01
(PID.TID 0000.0001) %MON exf_lwflux_sd                =   2.8020307065494E+01
(PID.TID 0000.0001) %MON exf_lwflux_del2              =   1.7285374939799E-02
(PID.TID 0000.0001) %MON exf_evap_max                 =   2.4791209030954E-07
(PID.TID 0000.0001) %MON exf_evap_min                 =  -4.1317153111420E-08
(PID.TID 0000.0001) %MON exf_evap_mean                =   7.9175271214564E-08
(PID.TID 0000.0001) %MON exf_evap_sd                  =   5.5501180616386E-08
(PID.TID 0000.0001) %MON exf_evap_del2                =   2.1399545095757E-11
(PID.TID 0000.0001) %MON exf_precip_max               =   1.1023168164476E-06
(PID.TID 0000.0001) %MON exf_precip_min               =   0.0000000000000E+00
(PID.TID 0000.0001) %MON exf_precip_mean              =   3.6202218850871E-08
(PID.TID 0000.0001) %MON exf_precip_sd                =   8.4365032605622E-08
(PID.TID 0000.0001) %MON exf_precip_del2              =   1.8456072720707E-11
(PID.TID 0000.0001) %MON exf_swflux_max               =   0.0000000000000E+00
(PID.TID 0000.0001) %MON exf_swflux_min               =  -1.2127805748375E+01
(PID.TID 0000.0001) %MON exf_swflux_mean              =  -4.0392578519898E-01
(PID.TID 0000.0001) %MON exf_swflux_sd                =   1.2808345934431E+00
(PID.TID 0000.0001) %MON exf_swflux_del2              =   2.7706007775612E-04
(PID.TID 0000.0001) %MON exf_swdown_max               =   1.3475339720417E+01
(PID.TID 0000.0001) %MON exf_swdown_min               =   0.0000000000000E+00
(PID.TID 0000.0001) %MON exf_swdown_mean              =   4.4880642799887E-01
(PID.TID 0000.0001) %MON exf_swdown_sd                =   1.4231495482701E+00
(PID.TID 0000.0001) %MON exf_swdown_del2              =   3.0784453084013E-04
(PID.TID 0000.0001) %MON exf_lwdown_max               =   4.0288339232961E+02
(PID.TID 0000.0001) %MON exf_lwdown_min               =   2.4868560412779E+02
(PID.TID 0000.0001) %MON exf_lwdown_mean              =   3.4206250089514E+02
(PID.TID 0000.0001) %MON exf_lwdown_sd                =   2.7586406157360E+01
(PID.TID 0000.0001) %MON exf_lwdown_del2              =   7.4685462924335E-02
(PID.TID 0000.0001) %MON exf_apressure_max            =   1.0296937305646E+05
(PID.TID 0000.0001) %MON exf_apressure_min            =   9.9648576718751E+04
(PID.TID 0000.0001) %MON exf_apressure_mean           =   1.0183953543043E+05
(PID.TID 0000.0001) %MON exf_apressure_sd             =   8.3512916811929E+02
(PID.TID 0000.0001) %MON exf_apressure_del2           =   2.2279350420471E+01
(PID.TID 0000.0001) %MON exf_runoff_max               =   4.4374798712073E-08
(PID.TID 0000.0001) %MON exf_runoff_min               =   0.0000000000000E+00
(PID.TID 0000.0001) %MON exf_runoff_mean              =   1.5884795719908E-09
(PID.TID 0000.0001) %MON exf_runoff_sd                =   5.3901959599983E-09
(PID.TID 0000.0001) %MON exf_runoff_del2              =   1.2741189756369E-12
(PID.TID 0000.0001) // =======================================================
(PID.TID 0000.0001) // End MONITOR EXF statistics
(PID.TID 0000.0001) // =======================================================
 cg2d: Sum(rhs),rhsMax =   1.53870977442444E+03  8.10524765589457E-02
(PID.TID 0000.0001)      cg2d_init_res =   1.53650377985984E+00
(PID.TID 0000.0001)      cg2d_iters(min,last) =      -1     312
(PID.TID 0000.0001)      cg2d_last_res =   6.96481128933713E-12
(PID.TID 0000.0001) // =======================================================
(PID.TID 0000.0001) // Begin MONITOR dynamic field statistics
(PID.TID 0000.0001) // =======================================================
(PID.TID 0000.0001) %MON time_tsnumber                =                    12
(PID.TID 0000.0001) %MON time_secondsf                =   2.8800000000000E+03
(PID.TID 0000.0001) %MON dynstat_eta_max              =   8.0512632371360E-01
(PID.TID 0000.0001) %MON dynstat_eta_min              =  -1.1194659459071E+00
(PID.TID 0000.0001) %MON dynstat_eta_mean             =  -5.2327058854363E-02
(PID.TID 0000.0001) %MON dynstat_eta_sd               =   2.5895211844682E-01
(PID.TID 0000.0001) %MON dynstat_eta_del2             =   2.3246722263404E-06
(PID.TID 0000.0001) %MON dynstat_uvel_max             =   1.2774527822764E+00
(PID.TID 0000.0001) %MON dynstat_uvel_min             =  -7.0199225540868E-01
(PID.TID 0000.0001) %MON dynstat_uvel_mean            =   3.7349054548474E-03
(PID.TID 0000.0001) %MON dynstat_uvel_sd              =   5.2381939935963E-02
(PID.TID 0000.0001) %MON dynstat_uvel_del2            =   5.2554665473802E-07
(PID.TID 0000.0001) %MON dynstat_vvel_max             =   2.5498895951784E+00
(PID.TID 0000.0001) %MON dynstat_vvel_min             =  -8.8837624476946E-01
(PID.TID 0000.0001) %MON dynstat_vvel_mean            =  -4.2225778025934E-03
(PID.TID 0000.0001) %MON dynstat_vvel_sd              =   4.9383671618315E-02
(PID.TID 0000.0001) %MON dynstat_vvel_del2            =   4.8208916496836E-07
(PID.TID 0000.0001) %MON dynstat_wvel_max             =   3.5436710390296E-02
(PID.TID 0000.0001) %MON dynstat_wvel_min             =  -3.1949023274200E-02
(PID.TID 0000.0001) %MON dynstat_wvel_mean            =  -1.6058314563893E-05
(PID.TID 0000.0001) %MON dynstat_wvel_sd              =   6.0630985429506E-04
(PID.TID 0000.0001) %MON dynstat_wvel_del2            =   7.2347637216408E-08
(PID.TID 0000.0001) %MON dynstat_theta_max            =   2.6136619136142E+01
(PID.TID 0000.0001) %MON dynstat_theta_min            =   1.4688650527128E+00
(PID.TID 0000.0001) %MON dynstat_theta_mean           =   5.5098607159966E+00
(PID.TID 0000.0001) %MON dynstat_theta_sd             =   4.7732745971667E+00
(PID.TID 0000.0001) %MON dynstat_theta_del2           =   4.0313630425946E-06
(PID.TID 0000.0001) %MON dynstat_salt_max             =   3.9152110802928E+01
(PID.TID 0000.0001) %MON dynstat_salt_min             =   3.3091290101859E+01
(PID.TID 0000.0001) %MON dynstat_salt_mean            =   3.5173366820421E+01
(PID.TID 0000.0001) %MON dynstat_salt_sd              =   3.7891897635636E-01
(PID.TID 0000.0001) %MON dynstat_salt_del2            =   5.2738776898973E-07
(PID.TID 0000.0001) %MON dynstat_sst_max              =   2.6126422954098E+01
(PID.TID 0000.0001) %MON dynstat_sst_min              =   3.9082477593832E+00
(PID.TID 0000.0001) %MON dynstat_sst_mean             =   1.9633974456005E+01
(PID.TID 0000.0001) %MON dynstat_sst_sd               =   3.6357688051412E+00
(PID.TID 0000.0001) %MON dynstat_sst_del2             =   1.9259268347644E-05
(PID.TID 0000.0001) %MON dynstat_sss_max              =   3.7335537262749E+01
(PID.TID 0000.0001) %MON dynstat_sss_min              =   3.3091290101859E+01
(PID.TID 0000.0001) %MON dynstat_sss_mean             =   3.5868562114794E+01
(PID.TID 0000.0001) %MON dynstat_sss_sd               =   4.8743926261755E-01
(PID.TID 0000.0001) %MON dynstat_sss_del2             =   4.9175028728968E-06
(PID.TID 0000.0001) %MON forcing_qnet_max             =   1.0726996283537E+03
(PID.TID 0000.0001) %MON forcing_qnet_min             =  -1.8406367447315E+02
(PID.TID 0000.0001) %MON forcing_qnet_mean            =   3.2662458597220E+02
(PID.TID 0000.0001) %MON forcing_qnet_sd              =   2.1609051555185E+02
(PID.TID 0000.0001) %MON forcing_qnet_del2            =   1.1807349370616E-03
(PID.TID 0000.0001) %MON forcing_qsw_max              =   0.0000000000000E+00
(PID.TID 0000.0001) %MON forcing_qsw_min              =  -1.2127805748375E+01
(PID.TID 0000.0001) %MON forcing_qsw_mean             =  -4.0392578519898E-01
(PID.TID 0000.0001) %MON forcing_qsw_sd               =   1.2808345934431E+00
(PID.TID 0000.0001) %MON forcing_qsw_del2             =   4.1248018187040E-06
(PID.TID 0000.0001) %MON forcing_empmr_max            =   2.2505280241932E-04
(PID.TID 0000.0001) %MON forcing_empmr_min            =  -1.1037394985404E-03
(PID.TID 0000.0001) %MON forcing_empmr_mean           =   4.1384572791702E-05
(PID.TID 0000.0001) %MON forcing_empmr_sd             =   1.1019005158014E-04
(PID.TID 0000.0001) %MON forcing_empmr_del2           =   9.5535358259985E-10
(PID.TID 0000.0001) %MON forcing_fu_max               =   5.6943978135574E-01
(PID.TID 0000.0001) %MON forcing_fu_min               =  -1.7652218110985E-01
(PID.TID 0000.0001) %MON forcing_fu_mean              =   9.7743626082086E-02
(PID.TID 0000.0001) %MON forcing_fu_sd                =   1.3486851808856E-01
(PID.TID 0000.0001) %MON forcing_fu_del2              =   1.6988884774517E-07
(PID.TID 0000.0001) %MON forcing_fv_max               =   4.1477231141015E-01
(PID.TID 0000.0001) %MON forcing_fv_min               =  -4.7262340687317E-01
(PID.TID 0000.0001) %MON forcing_fv_mean              =   2.8320202377575E-02
(PID.TID 0000.0001) %MON forcing_fv_sd                =   1.5252752610437E-01
(PID.TID 0000.0001) %MON forcing_fv_del2              =   3.2046789300491E-07
(PID.TID 0000.0001) %MON trAdv_CFL_u_max              =   7.7504034860045E-02
(PID.TID 0000.0001) %MON trAdv_CFL_v_max              =   1.6111071752499E-01
(PID.TID 0000.0001) %MON trAdv_CFL_w_max              =   5.1064502868232E-01
(PID.TID 0000.0001) %MON advcfl_uvel_max              =   7.7504033804757E-02
(PID.TID 0000.0001) %MON advcfl_vvel_max              =   1.6115759452258E-01
(PID.TID 0000.0001) %MON advcfl_wvel_max              =   5.0213427820428E-01
(PID.TID 0000.0001) %MON advcfl_W_hf_max              =   5.1064502868232E-01
(PID.TID 0000.0001) %MON pe_b_mean                    =  -1.1784225413101E-03
(PID.TID 0000.0001) %MON ke_max                       =   2.9373361050863E+00
(PID.TID 0000.0001) %MON ke_mean                      =   2.5879826469369E-03
(PID.TID 0000.0001) %MON ke_vol                       =   4.5818637279720E+16
(PID.TID 0000.0001) %MON vort_r_min                   =  -5.1565566996060E-04
(PID.TID 0000.0001) %MON vort_r_max                   =   7.3964430157694E-04
(PID.TID 0000.0001) %MON vort_a_mean                  =   8.2147622239582E-05
(PID.TID 0000.0001) %MON vort_a_sd                    =   1.0150960352838E-05
(PID.TID 0000.0001) %MON vort_p_mean                  =   8.4848843520798E-05
(PID.TID 0000.0001) %MON vort_p_sd                    =   3.4994787253192E-05
(PID.TID 0000.0001) %MON surfExpan_theta_mean         =  -3.9877621222373E-04
(PID.TID 0000.0001) %MON surfExpan_salt_mean          =  -1.0084989889059E-03
(PID.TID 0000.0001) // =======================================================
(PID.TID 0000.0001) // End MONITOR dynamic field statistics
(PID.TID 0000.0001) // =======================================================
(PID.TID 0000.0001) // =======================================================
(PID.TID 0000.0001) // Begin OBCS MONITOR field statistics
(PID.TID 0000.0001) // =======================================================
(PID.TID 0000.0001) %MON obc_N_vVel_max               =   6.9445057130833E-01
(PID.TID 0000.0001) %MON obc_N_vVel_min               =  -3.2418597803533E-01
(PID.TID 0000.0001) %MON obc_N_vVel_mean              =   1.3447344925231E-02
(PID.TID 0000.0001) %MON obc_N_vVel_sd                =   6.4566341463581E-02
(PID.TID 0000.0001) %MON obc_N_vVel_Int               =   1.9249987840335E+08
(PID.TID 0000.0001) %MON obc_S_vVel_max               =   2.5498895951784E+00
(PID.TID 0000.0001) %MON obc_S_vVel_min               =  -2.6309677804153E-01
(PID.TID 0000.0001) %MON obc_S_vVel_mean              =  -4.2444228596303E-03
(PID.TID 0000.0001) %MON obc_S_vVel_sd                =   3.6332683878914E-02
(PID.TID 0000.0001) %MON obc_S_vVel_Int               =  -1.2921253928519E+08
(PID.TID 0000.0001) %MON obc_N_theta_max              =   1.6389803818919E+01
(PID.TID 0000.0001) %MON obc_N_theta_min              =   1.8895913157701E+00
(PID.TID 0000.0001) %MON obc_N_theta_mean             =   5.1588918920883E+00
(PID.TID 0000.0001) %MON obc_N_theta_sd               =   3.4826224400858E+00
(PID.TID 0000.0001) %MON obc_S_theta_max              =   2.5543708323453E+01
(PID.TID 0000.0001) %MON obc_S_theta_min              =   1.4633003963337E+00
(PID.TID 0000.0001) %MON obc_S_theta_mean             =   5.4595481199164E+00
(PID.TID 0000.0001) %MON obc_S_theta_sd               =   5.3558905817403E+00
(PID.TID 0000.0001) %MON obc_N_salt_max               =   3.5910862747600E+01
(PID.TID 0000.0001) %MON obc_N_salt_min               =   3.3295080101645E+01
(PID.TID 0000.0001) %MON obc_N_salt_mean              =   3.5114560764510E+01
(PID.TID 0000.0001) %MON obc_N_salt_sd                =   3.0984789812930E-01
(PID.TID 0000.0001) %MON obc_S_salt_max               =   3.7318264018012E+01
(PID.TID 0000.0001) %MON obc_S_salt_min               =   3.4844694940461E+01
(PID.TID 0000.0001) %MON obc_S_salt_mean              =   3.5168372075834E+01
(PID.TID 0000.0001) %MON obc_S_salt_sd                =   4.5716689510142E-01
(PID.TID 0000.0001) // =======================================================
(PID.TID 0000.0001) // End OBCS MONITOR field statistics
(PID.TID 0000.0001) // =======================================================
(PID.TID 0000.0001) // =======================================================
(PID.TID 0000.0001) // Begin MONITOR EXF statistics
(PID.TID 0000.0001) // =======================================================
(PID.TID 0000.0001) %MON exf_tsnumber                 =                    12
(PID.TID 0000.0001) %MON exf_time_sec                 =   2.8800000000000E+03
(PID.TID 0000.0001) %MON exf_ustress_max              =   5.6748184516377E-01
(PID.TID 0000.0001) %MON exf_ustress_min              =  -1.7610966784016E-01
(PID.TID 0000.0001) %MON exf_ustress_mean             =   9.7503633232046E-02
(PID.TID 0000.0001) %MON exf_ustress_sd               =   1.3463291757741E-01
(PID.TID 0000.0001) %MON exf_ustress_del2             =   1.9782377721861E-07
(PID.TID 0000.0001) %MON exf_vstress_max              =   4.1576177107186E-01
(PID.TID 0000.0001) %MON exf_vstress_min              =  -4.7243233663641E-01
(PID.TID 0000.0001) %MON exf_vstress_mean             =   2.8520367537028E-02
(PID.TID 0000.0001) %MON exf_vstress_sd               =   1.5234191617034E-01
(PID.TID 0000.0001) %MON exf_vstress_del2             =   3.4899943303500E-07
(PID.TID 0000.0001) %MON exf_hflux_max                =   1.0556632083637E+03
(PID.TID 0000.0001) %MON exf_hflux_min                =  -1.2823039609759E+02
(PID.TID 0000.0001) %MON exf_hflux_mean               =   3.2211430340215E+02
(PID.TID 0000.0001) %MON exf_hflux_sd                 =   2.1000208958169E+02
(PID.TID 0000.0001) %MON exf_hflux_del2               =   8.6001582117872E-02
(PID.TID 0000.0001) %MON exf_sflux_max                =   2.2465650850668E-07
(PID.TID 0000.0001) %MON exf_sflux_min                =  -1.1170185983345E-06
(PID.TID 0000.0001) %MON exf_sflux_mean               =   4.1224602134832E-08
(PID.TID 0000.0001) %MON exf_sflux_sd                 =   1.1083078069500E-07
(PID.TID 0000.0001) %MON exf_sflux_del2               =   2.4416266469817E-11
(PID.TID 0000.0001) %MON exf_uwind_max                =   1.5558777343507E+01
(PID.TID 0000.0001) %MON exf_uwind_min                =  -1.0420357001935E+01
(PID.TID 0000.0001) %MON exf_uwind_mean               =   4.3627273926213E+00
(PID.TID 0000.0001) %MON exf_uwind_sd                 =   5.8950296692884E+00
(PID.TID 0000.0001) %MON exf_uwind_del2               =   1.6354417010148E-03
(PID.TID 0000.0001) %MON exf_vwind_max                =   1.4796169724847E+01
(PID.TID 0000.0001) %MON exf_vwind_min                =  -1.3061584402750E+01
(PID.TID 0000.0001) %MON exf_vwind_mean               =   1.7669548736523E+00
(PID.TID 0000.0001) %MON exf_vwind_sd                 =   7.3430802794144E+00
(PID.TID 0000.0001) %MON exf_vwind_del2               =   1.6812143272472E-03
(PID.TID 0000.0001) %MON exf_wspeed_max               =   1.8289259792379E+01
(PID.TID 0000.0001) %MON exf_wspeed_min               =   5.5152338099927E-02
(PID.TID 0000.0001) %MON exf_wspeed_mean              =   9.9084941513301E+00
(PID.TID 0000.0001) %MON exf_wspeed_sd                =   3.5566088163618E+00
(PID.TID 0000.0001) %MON exf_wspeed_del2              =   2.3453946163055E-03
(PID.TID 0000.0001) %MON exf_atemp_max                =   2.9778820768118E+02
(PID.TID 0000.0001) %MON exf_atemp_min                =   2.7436618777640E+02
(PID.TID 0000.0001) %MON exf_atemp_mean               =   2.8987837569549E+02
(PID.TID 0000.0001) %MON exf_atemp_sd                 =   4.2948818272877E+00
(PID.TID 0000.0001) %MON exf_atemp_del2               =   3.7038172347290E-03
(PID.TID 0000.0001) %MON exf_aqh_max                  =   1.4912429686652E-02
(PID.TID 0000.0001) %MON exf_aqh_min                  =   3.1311636822047E-03
(PID.TID 0000.0001) %MON exf_aqh_mean                 =   9.5839304763939E-03
(PID.TID 0000.0001) %MON exf_aqh_sd                   =   2.2514361720189E-03
(PID.TID 0000.0001) %MON exf_aqh_del2                 =   2.1298661927969E-06
(PID.TID 0000.0001) %MON exf_lwflux_max               =   1.5610562056321E+02
(PID.TID 0000.0001) %MON exf_lwflux_min               =  -3.5700151986993E+00
(PID.TID 0000.0001) %MON exf_lwflux_mean              =   7.2722060304390E+01
(PID.TID 0000.0001) %MON exf_lwflux_sd                =   2.8058231008987E+01
(PID.TID 0000.0001) %MON exf_lwflux_del2              =   1.7286088553138E-02
(PID.TID 0000.0001) %MON exf_evap_max                 =   2.4764528336262E-07
(PID.TID 0000.0001) %MON exf_evap_min                 =  -4.1180322851006E-08
(PID.TID 0000.0001) %MON exf_evap_mean                =   7.9110158737907E-08
(PID.TID 0000.0001) %MON exf_evap_sd                  =   5.5425066090974E-08
(PID.TID 0000.0001) %MON exf_evap_del2                =   2.1377270631305E-11
(PID.TID 0000.0001) %MON exf_precip_max               =   1.1154271045395E-06
(PID.TID 0000.0001) %MON exf_precip_min               =   0.0000000000000E+00
(PID.TID 0000.0001) %MON exf_precip_mean              =   3.6297077031084E-08
(PID.TID 0000.0001) %MON exf_precip_sd                =   8.5110316673169E-08
(PID.TID 0000.0001) %MON exf_precip_del2              =   1.8596781055270E-11
(PID.TID 0000.0001) %MON exf_swflux_max               =   0.0000000000000E+00
(PID.TID 0000.0001) %MON exf_swflux_min               =  -1.1073213944169E+01
(PID.TID 0000.0001) %MON exf_swflux_mean              =  -3.6880180387733E-01
(PID.TID 0000.0001) %MON exf_swflux_sd                =   1.1694576722741E+00
(PID.TID 0000.0001) %MON exf_swflux_del2              =   2.5296789708167E-04
(PID.TID 0000.0001) %MON exf_swdown_max               =   1.2303571049076E+01
(PID.TID 0000.0001) %MON exf_swdown_min               =   0.0000000000000E+00
(PID.TID 0000.0001) %MON exf_swdown_mean              =   4.0977978208592E-01
(PID.TID 0000.0001) %MON exf_swdown_sd                =   1.2993974136379E+00
(PID.TID 0000.0001) %MON exf_swdown_del2              =   2.8107544120186E-04
(PID.TID 0000.0001) %MON exf_lwdown_max               =   4.0298538564923E+02
(PID.TID 0000.0001) %MON exf_lwdown_min               =   2.4862567395729E+02
(PID.TID 0000.0001) %MON exf_lwdown_mean              =   3.4206347898232E+02
(PID.TID 0000.0001) %MON exf_lwdown_sd                =   2.7608944081581E+01
(PID.TID 0000.0001) %MON exf_lwdown_del2              =   7.4686499747138E-02
(PID.TID 0000.0001) %MON exf_apressure_max            =   1.0296684781805E+05
(PID.TID 0000.0001) %MON exf_apressure_min            =   9.9647415185359E+04
(PID.TID 0000.0001) %MON exf_apressure_mean           =   1.0183790172268E+05
(PID.TID 0000.0001) %MON exf_apressure_sd             =   8.3459006794907E+02
(PID.TID 0000.0001) %MON exf_apressure_del2           =   2.2279002454048E+01
(PID.TID 0000.0001) %MON exf_runoff_max               =   4.4374798712073E-08
(PID.TID 0000.0001) %MON exf_runoff_min               =   0.0000000000000E+00
(PID.TID 0000.0001) %MON exf_runoff_mean              =   1.5884795719908E-09
(PID.TID 0000.0001) %MON exf_runoff_sd                =   5.3901959599983E-09
(PID.TID 0000.0001) %MON exf_runoff_del2              =   1.2741189756369E-12
(PID.TID 0000.0001) // =======================================================
(PID.TID 0000.0001) // End MONITOR EXF statistics
(PID.TID 0000.0001) // =======================================================
 cg2d: Sum(rhs),rhsMax =   1.75193148624879E+03  8.18072442273192E-02
(PID.TID 0000.0001)      cg2d_init_res =   1.45561847882531E+00
(PID.TID 0000.0001)      cg2d_iters(min,last) =      -1     312
(PID.TID 0000.0001)      cg2d_last_res =   6.61664300673652E-12
(PID.TID 0000.0001) // =======================================================
(PID.TID 0000.0001) // Begin MONITOR dynamic field statistics
(PID.TID 0000.0001) // =======================================================
(PID.TID 0000.0001) %MON time_tsnumber                =                    13
(PID.TID 0000.0001) %MON time_secondsf                =   3.1200000000000E+03
(PID.TID 0000.0001) %MON dynstat_eta_max              =   7.4780599022962E-01
(PID.TID 0000.0001) %MON dynstat_eta_min              =  -1.1996813390798E+00
(PID.TID 0000.0001) %MON dynstat_eta_mean             =  -5.9578111163973E-02
(PID.TID 0000.0001) %MON dynstat_eta_sd               =   2.6882968269757E-01
(PID.TID 0000.0001) %MON dynstat_eta_del2             =   2.3497911370236E-06
(PID.TID 0000.0001) %MON dynstat_uvel_max             =   1.2716067144949E+00
(PID.TID 0000.0001) %MON dynstat_uvel_min             =  -7.5280049920905E-01
(PID.TID 0000.0001) %MON dynstat_uvel_mean            =   3.6435757842454E-03
(PID.TID 0000.0001) %MON dynstat_uvel_sd              =   5.2396300342806E-02
(PID.TID 0000.0001) %MON dynstat_uvel_del2            =   5.3316724928925E-07
(PID.TID 0000.0001) %MON dynstat_vvel_max             =   2.6099963963822E+00
(PID.TID 0000.0001) %MON dynstat_vvel_min             =  -8.8677310509686E-01
(PID.TID 0000.0001) %MON dynstat_vvel_mean            =  -4.4422002883422E-03
(PID.TID 0000.0001) %MON dynstat_vvel_sd              =   4.9459816691465E-02
(PID.TID 0000.0001) %MON dynstat_vvel_del2            =   4.8959874379066E-07
(PID.TID 0000.0001) %MON dynstat_wvel_max             =   3.6774244154140E-02
(PID.TID 0000.0001) %MON dynstat_wvel_min             =  -3.2471949042288E-02
(PID.TID 0000.0001) %MON dynstat_wvel_mean            =  -1.7147359681995E-05
(PID.TID 0000.0001) %MON dynstat_wvel_sd              =   6.0790117968157E-04
(PID.TID 0000.0001) %MON dynstat_wvel_del2            =   7.1032140709490E-08
(PID.TID 0000.0001) %MON dynstat_theta_max            =   2.6137670250863E+01
(PID.TID 0000.0001) %MON dynstat_theta_min            =   1.4688652339507E+00
(PID.TID 0000.0001) %MON dynstat_theta_mean           =   5.5098713221512E+00
(PID.TID 0000.0001) %MON dynstat_theta_sd             =   4.7732708478992E+00
(PID.TID 0000.0001) %MON dynstat_theta_del2           =   4.0329909534195E-06
(PID.TID 0000.0001) %MON dynstat_salt_max             =   3.9147874078573E+01
(PID.TID 0000.0001) %MON dynstat_salt_min             =   3.3091432801062E+01
(PID.TID 0000.0001) %MON dynstat_salt_mean            =   3.5173367183043E+01
(PID.TID 0000.0001) %MON dynstat_salt_sd              =   3.7892036455260E-01
(PID.TID 0000.0001) %MON dynstat_salt_del2            =   5.2976803220143E-07
(PID.TID 0000.0001) %MON dynstat_sst_max              =   2.6127151446556E+01
(PID.TID 0000.0001) %MON dynstat_sst_min              =   3.8923382381598E+00
(PID.TID 0000.0001) %MON dynstat_sst_mean             =   1.9633220530337E+01
(PID.TID 0000.0001) %MON dynstat_sst_sd               =   3.6356581191531E+00
(PID.TID 0000.0001) %MON dynstat_sst_del2             =   1.9306342552578E-05
(PID.TID 0000.0001) %MON dynstat_sss_max              =   3.7335597305927E+01
(PID.TID 0000.0001) %MON dynstat_sss_min              =   3.3091432801062E+01
(PID.TID 0000.0001) %MON dynstat_sss_mean             =   3.5868592912603E+01
(PID.TID 0000.0001) %MON dynstat_sss_sd               =   4.8745132088694E-01
(PID.TID 0000.0001) %MON dynstat_sss_del2             =   4.9116021918838E-06
(PID.TID 0000.0001) %MON forcing_qnet_max             =   1.0714548139098E+03
(PID.TID 0000.0001) %MON forcing_qnet_min             =  -1.8593701796470E+02
(PID.TID 0000.0001) %MON forcing_qnet_mean            =   3.2641703770141E+02
(PID.TID 0000.0001) %MON forcing_qnet_sd              =   2.1585257217333E+02
(PID.TID 0000.0001) %MON forcing_qnet_del2            =   1.1812725633919E-03
(PID.TID 0000.0001) %MON forcing_qsw_max              =   0.0000000000000E+00
(PID.TID 0000.0001) %MON forcing_qsw_min              =  -1.1073213944169E+01
(PID.TID 0000.0001) %MON forcing_qsw_mean             =  -3.6880180387733E-01
(PID.TID 0000.0001) %MON forcing_qsw_sd               =   1.1694576722741E+00
(PID.TID 0000.0001) %MON forcing_qsw_del2             =   3.7661233996862E-06
(PID.TID 0000.0001) %MON forcing_empmr_max            =   2.2465650850668E-04
(PID.TID 0000.0001) %MON forcing_empmr_min            =  -1.1170185983345E-03
(PID.TID 0000.0001) %MON forcing_empmr_mean           =   4.1224602134832E-05
(PID.TID 0000.0001) %MON forcing_empmr_sd             =   1.1083078069500E-04
(PID.TID 0000.0001) %MON forcing_empmr_del2           =   9.7054815616897E-10
(PID.TID 0000.0001) %MON forcing_fu_max               =   5.6742867229714E-01
(PID.TID 0000.0001) %MON forcing_fu_min               =  -1.7609231914562E-01
(PID.TID 0000.0001) %MON forcing_fu_mean              =   9.7609170657481E-02
(PID.TID 0000.0001) %MON forcing_fu_sd                =   1.3466110616603E-01
(PID.TID 0000.0001) %MON forcing_fu_del2              =   1.6992867730321E-07
(PID.TID 0000.0001) %MON forcing_fv_max               =   4.1572312872649E-01
(PID.TID 0000.0001) %MON forcing_fv_min               =  -4.7242696552783E-01
(PID.TID 0000.0001) %MON forcing_fv_mean              =   2.8453518050046E-02
(PID.TID 0000.0001) %MON forcing_fv_sd                =   1.5234953583501E-01
(PID.TID 0000.0001) %MON forcing_fv_del2              =   3.2287517956305E-07
(PID.TID 0000.0001) %MON trAdv_CFL_u_max              =   7.7149349467817E-02
(PID.TID 0000.0001) %MON trAdv_CFL_v_max              =   1.6490847013686E-01
(PID.TID 0000.0001) %MON trAdv_CFL_w_max              =   5.1705420822099E-01
(PID.TID 0000.0001) %MON advcfl_uvel_max              =   7.7149348417359E-02
(PID.TID 0000.0001) %MON advcfl_vvel_max              =   1.6495645213381E-01
(PID.TID 0000.0001) %MON advcfl_wvel_max              =   5.0843663808398E-01
(PID.TID 0000.0001) %MON advcfl_W_hf_max              =   5.1705420822099E-01
(PID.TID 0000.0001) %MON pe_b_mean                    =  -1.3476483939303E-03
(PID.TID 0000.0001) %MON ke_max                       =   3.0850434313102E+00
(PID.TID 0000.0001) %MON ke_mean                      =   2.5930772988957E-03
(PID.TID 0000.0001) %MON ke_vol                       =   4.5818637279720E+16
(PID.TID 0000.0001) %MON vort_r_min                   =  -5.1491540402153E-04
(PID.TID 0000.0001) %MON vort_r_max                   =   7.5984403265284E-04
(PID.TID 0000.0001) %MON vort_a_mean                  =   8.2147621412605E-05
(PID.TID 0000.0001) %MON vort_a_sd                    =   1.0154266692101E-05
(PID.TID 0000.0001) %MON vort_p_mean                  =   8.4848842666628E-05
(PID.TID 0000.0001) %MON vort_p_sd                    =   3.4998869712541E-05
(PID.TID 0000.0001) %MON surfExpan_theta_mean         =  -4.3864223186492E-04
(PID.TID 0000.0001) %MON surfExpan_salt_mean          =  -1.0717926232825E-03
(PID.TID 0000.0001) // =======================================================
(PID.TID 0000.0001) // End MONITOR dynamic field statistics
(PID.TID 0000.0001) // =======================================================
(PID.TID 0000.0001) // =======================================================
(PID.TID 0000.0001) // Begin OBCS MONITOR field statistics
(PID.TID 0000.0001) // =======================================================
(PID.TID 0000.0001) %MON obc_N_vVel_max               =   6.9426531208340E-01
(PID.TID 0000.0001) %MON obc_N_vVel_min               =  -3.2452656104798E-01
(PID.TID 0000.0001) %MON obc_N_vVel_mean              =   1.3381664447098E-02
(PID.TID 0000.0001) %MON obc_N_vVel_sd                =   6.4543608601926E-02
(PID.TID 0000.0001) %MON obc_N_vVel_Int               =   1.9155965681133E+08
(PID.TID 0000.0001) %MON obc_S_vVel_max               =   2.6099963963822E+00
(PID.TID 0000.0001) %MON obc_S_vVel_min               =  -2.6315746208509E-01
(PID.TID 0000.0001) %MON obc_S_vVel_mean              =  -4.9235880448266E-03
(PID.TID 0000.0001) %MON obc_S_vVel_sd                =   3.6409914101142E-02
(PID.TID 0000.0001) %MON obc_S_vVel_Int               =  -1.4988829687946E+08
(PID.TID 0000.0001) %MON obc_N_theta_max              =   1.6389715716732E+01
(PID.TID 0000.0001) %MON obc_N_theta_min              =   1.8895913648355E+00
(PID.TID 0000.0001) %MON obc_N_theta_mean             =   5.1588845079383E+00
(PID.TID 0000.0001) %MON obc_N_theta_sd               =   3.4826131499335E+00
(PID.TID 0000.0001) %MON obc_S_theta_max              =   2.5543605574674E+01
(PID.TID 0000.0001) %MON obc_S_theta_min              =   1.4633007926210E+00
(PID.TID 0000.0001) %MON obc_S_theta_mean             =   5.4595473148918E+00
(PID.TID 0000.0001) %MON obc_S_theta_sd               =   5.3558867108083E+00
(PID.TID 0000.0001) %MON obc_N_salt_max               =   3.5910862339236E+01
(PID.TID 0000.0001) %MON obc_N_salt_min               =   3.3295085604278E+01
(PID.TID 0000.0001) %MON obc_N_salt_mean              =   3.5114560468523E+01
(PID.TID 0000.0001) %MON obc_N_salt_sd                =   3.0984777910560E-01
(PID.TID 0000.0001) %MON obc_S_salt_max               =   3.7318257133628E+01
(PID.TID 0000.0001) %MON obc_S_salt_min               =   3.4844694992682E+01
(PID.TID 0000.0001) %MON obc_S_salt_mean              =   3.5168372003918E+01
(PID.TID 0000.0001) %MON obc_S_salt_sd                =   4.5716654409228E-01
(PID.TID 0000.0001) // =======================================================
(PID.TID 0000.0001) // End OBCS MONITOR field statistics
(PID.TID 0000.0001) // =======================================================
(PID.TID 0000.0001) // =======================================================
(PID.TID 0000.0001) // Begin MONITOR EXF statistics
(PID.TID 0000.0001) // =======================================================
(PID.TID 0000.0001) %MON exf_tsnumber                 =                    13
(PID.TID 0000.0001) %MON exf_time_sec                 =   3.1200000000000E+03
(PID.TID 0000.0001) %MON exf_ustress_max              =   5.6548438966512E-01
(PID.TID 0000.0001) %MON exf_ustress_min              =  -1.7569362278325E-01
(PID.TID 0000.0001) %MON exf_ustress_mean             =   9.7376723498178E-02
(PID.TID 0000.0001) %MON exf_ustress_sd               =   1.3444308862411E-01
(PID.TID 0000.0001) %MON exf_ustress_del2             =   1.9812760181732E-07
(PID.TID 0000.0001) %MON exf_vstress_max              =   4.1669011323700E-01
(PID.TID 0000.0001) %MON exf_vstress_min              =  -4.7223753676162E-01
(PID.TID 0000.0001) %MON exf_vstress_mean             =   2.8657021988613E-02
(PID.TID 0000.0001) %MON exf_vstress_sd               =   1.5218293007162E-01
(PID.TID 0000.0001) %MON exf_vstress_del2             =   3.5242882643794E-07
(PID.TID 0000.0001) %MON exf_hflux_max                =   1.0544914548881E+03
(PID.TID 0000.0001) %MON exf_hflux_min                =  -1.2743379017927E+02
(PID.TID 0000.0001) %MON exf_hflux_mean               =   3.2193058968879E+02
(PID.TID 0000.0001) %MON exf_hflux_sd                 =   2.0976365688138E+02
(PID.TID 0000.0001) %MON exf_hflux_del2               =   8.5930070668020E-02
(PID.TID 0000.0001) %MON exf_sflux_max                =   2.2426648641414E-07
(PID.TID 0000.0001) %MON exf_sflux_min                =  -1.1302737737730E-06
(PID.TID 0000.0001) %MON exf_sflux_mean               =   4.1067958685473E-08
(PID.TID 0000.0001) %MON exf_sflux_sd                 =   1.1149649658018E-07
(PID.TID 0000.0001) %MON exf_sflux_del2               =   2.4518280820527E-11
(PID.TID 0000.0001) %MON exf_uwind_max                =   1.5552216779200E+01
(PID.TID 0000.0001) %MON exf_uwind_min                =  -1.0403860794085E+01
(PID.TID 0000.0001) %MON exf_uwind_mean               =   4.3617303143470E+00
(PID.TID 0000.0001) %MON exf_uwind_sd                 =   5.8928003474391E+00
(PID.TID 0000.0001) %MON exf_uwind_del2               =   1.6351718188103E-03
(PID.TID 0000.0001) %MON exf_vwind_max                =   1.4778790106113E+01
(PID.TID 0000.0001) %MON exf_vwind_min                =  -1.3053380501290E+01
(PID.TID 0000.0001) %MON exf_vwind_mean               =   1.7729013435217E+00
(PID.TID 0000.0001) %MON exf_vwind_sd                 =   7.3383950414555E+00
(PID.TID 0000.0001) %MON exf_vwind_del2               =   1.6805064314569E-03
(PID.TID 0000.0001) %MON exf_wspeed_max               =   1.8275576952032E+01
(PID.TID 0000.0001) %MON exf_wspeed_min               =   3.9844405127463E-02
(PID.TID 0000.0001) %MON exf_wspeed_mean              =   9.9049564435536E+00
(PID.TID 0000.0001) %MON exf_wspeed_sd                =   3.5548341845290E+00
(PID.TID 0000.0001) %MON exf_wspeed_del2              =   2.3446994587940E-03
(PID.TID 0000.0001) %MON exf_atemp_max                =   2.9778775365334E+02
(PID.TID 0000.0001) %MON exf_atemp_min                =   2.7437068151422E+02
(PID.TID 0000.0001) %MON exf_atemp_mean               =   2.8987844920861E+02
(PID.TID 0000.0001) %MON exf_atemp_sd                 =   4.2917229668201E+00
(PID.TID 0000.0001) %MON exf_atemp_del2               =   3.7038092807008E-03
(PID.TID 0000.0001) %MON exf_aqh_max                  =   1.4934034345055E-02
(PID.TID 0000.0001) %MON exf_aqh_min                  =   3.1387107731865E-03
(PID.TID 0000.0001) %MON exf_aqh_mean                 =   9.5835472938686E-03
(PID.TID 0000.0001) %MON exf_aqh_sd                   =   2.2494372597615E-03
(PID.TID 0000.0001) %MON exf_aqh_del2                 =   2.1297500054435E-06
(PID.TID 0000.0001) %MON exf_lwflux_max               =   1.5589539277548E+02
(PID.TID 0000.0001) %MON exf_lwflux_min               =  -4.2299455309281E+00
(PID.TID 0000.0001) %MON exf_lwflux_mean              =   7.2716924015829E+01
(PID.TID 0000.0001) %MON exf_lwflux_sd                =   2.8099100962374E+01
(PID.TID 0000.0001) %MON exf_lwflux_del2              =   1.7287100876694E-02
(PID.TID 0000.0001) %MON exf_evap_max                 =   2.4738647758084E-07
(PID.TID 0000.0001) %MON exf_evap_min                 =  -4.1043723866651E-08
(PID.TID 0000.0001) %MON exf_evap_mean                =   7.9048373468761E-08
(PID.TID 0000.0001) %MON exf_evap_sd                  =   5.5351943390656E-08
(PID.TID 0000.0001) %MON exf_evap_del2                =   2.1356111885219E-11
(PID.TID 0000.0001) %MON exf_precip_max               =   1.1285373926313E-06
(PID.TID 0000.0001) %MON exf_precip_min               =   0.0000000000000E+00
(PID.TID 0000.0001) %MON exf_precip_mean              =   3.6391935211297E-08
(PID.TID 0000.0001) %MON exf_precip_sd                =   8.5882955754695E-08
(PID.TID 0000.0001) %MON exf_precip_del2              =   1.8742849921745E-11
(PID.TID 0000.0001) %MON exf_swflux_max               =   0.0000000000000E+00
(PID.TID 0000.0001) %MON exf_swflux_min               =  -1.0018622139962E+01
(PID.TID 0000.0001) %MON exf_swflux_mean              =  -3.3367782255568E-01
(PID.TID 0000.0001) %MON exf_swflux_sd                =   1.0580807511051E+00
(PID.TID 0000.0001) %MON exf_swflux_del2              =   2.2887571640723E-04
(PID.TID 0000.0001) %MON exf_swdown_max               =   1.1131802377736E+01
(PID.TID 0000.0001) %MON exf_swdown_min               =   0.0000000000000E+00
(PID.TID 0000.0001) %MON exf_swdown_mean              =   3.7075313617298E-01
(PID.TID 0000.0001) %MON exf_swdown_sd                =   1.1756452790057E+00
(PID.TID 0000.0001) %MON exf_swdown_del2              =   2.5430635156359E-04
(PID.TID 0000.0001) %MON exf_lwdown_max               =   4.0308737896884E+02
(PID.TID 0000.0001) %MON exf_lwdown_min               =   2.4856574378679E+02
(PID.TID 0000.0001) %MON exf_lwdown_mean              =   3.4206445706950E+02
(PID.TID 0000.0001) %MON exf_lwdown_sd                =   2.7634641330421E+01
(PID.TID 0000.0001) %MON exf_lwdown_del2              =   7.4687599111920E-02
(PID.TID 0000.0001) %MON exf_apressure_max            =   1.0296432257964E+05
(PID.TID 0000.0001) %MON exf_apressure_min            =   9.9646253651967E+04
(PID.TID 0000.0001) %MON exf_apressure_mean           =   1.0183626801493E+05
(PID.TID 0000.0001) %MON exf_apressure_sd             =   8.3405610233006E+02
(PID.TID 0000.0001) %MON exf_apressure_del2           =   2.2278654497962E+01
(PID.TID 0000.0001) %MON exf_runoff_max               =   4.4374798712073E-08
(PID.TID 0000.0001) %MON exf_runoff_min               =   0.0000000000000E+00
(PID.TID 0000.0001) %MON exf_runoff_mean              =   1.5884795719908E-09
(PID.TID 0000.0001) %MON exf_runoff_sd                =   5.3901959599983E-09
(PID.TID 0000.0001) %MON exf_runoff_del2              =   1.2741189756369E-12
(PID.TID 0000.0001) // =======================================================
(PID.TID 0000.0001) // End MONITOR EXF statistics
(PID.TID 0000.0001) // =======================================================
 cg2d: Sum(rhs),rhsMax =   1.97721784889041E+03  8.14899867372878E-02
(PID.TID 0000.0001)      cg2d_init_res =   1.44005312399702E+00
(PID.TID 0000.0001)      cg2d_iters(min,last) =      -1     311
(PID.TID 0000.0001)      cg2d_last_res =   7.03551647611237E-12
(PID.TID 0000.0001) // =======================================================
(PID.TID 0000.0001) // Begin MONITOR dynamic field statistics
(PID.TID 0000.0001) // =======================================================
(PID.TID 0000.0001) %MON time_tsnumber                =                    14
(PID.TID 0000.0001) %MON time_secondsf                =   3.3600000000000E+03
(PID.TID 0000.0001) %MON dynstat_eta_max              =   7.7081888426481E-01
(PID.TID 0000.0001) %MON dynstat_eta_min              =  -1.3210367186801E+00
(PID.TID 0000.0001) %MON dynstat_eta_mean             =  -6.7239447273600E-02
(PID.TID 0000.0001) %MON dynstat_eta_sd               =   2.7818391634040E-01
(PID.TID 0000.0001) %MON dynstat_eta_del2             =   2.4110528553094E-06
(PID.TID 0000.0001) %MON dynstat_uvel_max             =   1.2669914804936E+00
(PID.TID 0000.0001) %MON dynstat_uvel_min             =  -8.3966653854563E-01
(PID.TID 0000.0001) %MON dynstat_uvel_mean            =   3.5507892854697E-03
(PID.TID 0000.0001) %MON dynstat_uvel_sd              =   5.2415045324275E-02
(PID.TID 0000.0001) %MON dynstat_uvel_del2            =   5.4070293215541E-07
(PID.TID 0000.0001) %MON dynstat_vvel_max             =   2.6695680775817E+00
(PID.TID 0000.0001) %MON dynstat_vvel_min             =  -8.8497079675129E-01
(PID.TID 0000.0001) %MON dynstat_vvel_mean            =  -4.6354521880124E-03
(PID.TID 0000.0001) %MON dynstat_vvel_sd              =   4.9525098530063E-02
(PID.TID 0000.0001) %MON dynstat_vvel_del2            =   4.9747661891701E-07
(PID.TID 0000.0001) %MON dynstat_wvel_max             =   3.8121889747879E-02
(PID.TID 0000.0001) %MON dynstat_wvel_min             =  -3.2899405039515E-02
(PID.TID 0000.0001) %MON dynstat_wvel_mean            =  -1.8215462753851E-05
(PID.TID 0000.0001) %MON dynstat_wvel_sd              =   6.0941689727925E-04
(PID.TID 0000.0001) %MON dynstat_wvel_del2            =   7.0420836951444E-08
(PID.TID 0000.0001) %MON dynstat_theta_max            =   2.6138628220356E+01
(PID.TID 0000.0001) %MON dynstat_theta_min            =   1.4688654266140E+00
(PID.TID 0000.0001) %MON dynstat_theta_mean           =   5.5098836486576E+00
(PID.TID 0000.0001) %MON dynstat_theta_sd             =   4.7732695892148E+00
(PID.TID 0000.0001) %MON dynstat_theta_del2           =   4.0338962235170E-06
(PID.TID 0000.0001) %MON dynstat_salt_max             =   3.9143458190785E+01
(PID.TID 0000.0001) %MON dynstat_salt_min             =   3.3091575105932E+01
(PID.TID 0000.0001) %MON dynstat_salt_mean            =   3.5173367637802E+01
(PID.TID 0000.0001) %MON dynstat_salt_sd              =   3.7892178975564E-01
(PID.TID 0000.0001) %MON dynstat_salt_del2            =   5.3182680981221E-07
(PID.TID 0000.0001) %MON dynstat_sst_max              =   2.6127797539781E+01
(PID.TID 0000.0001) %MON dynstat_sst_min              =   3.8763204212177E+00
(PID.TID 0000.0001) %MON dynstat_sst_mean             =   1.9632496575079E+01
(PID.TID 0000.0001) %MON dynstat_sst_sd               =   3.6355529453406E+00
(PID.TID 0000.0001) %MON dynstat_sst_del2             =   1.9359396194396E-05
(PID.TID 0000.0001) %MON dynstat_sss_max              =   3.7335659811017E+01
(PID.TID 0000.0001) %MON dynstat_sss_min              =   3.3091575105932E+01
(PID.TID 0000.0001) %MON dynstat_sss_mean             =   3.5868622156575E+01
(PID.TID 0000.0001) %MON dynstat_sss_sd               =   4.8746262245291E-01
(PID.TID 0000.0001) %MON dynstat_sss_del2             =   4.9061227993009E-06
(PID.TID 0000.0001) %MON forcing_qnet_max             =   1.0702421885942E+03
(PID.TID 0000.0001) %MON forcing_qnet_min             =  -1.8781541832565E+02
(PID.TID 0000.0001) %MON forcing_qnet_mean            =   3.2622112340668E+02
(PID.TID 0000.0001) %MON forcing_qnet_sd              =   2.1562551237765E+02
(PID.TID 0000.0001) %MON forcing_qnet_del2            =   1.1814410697831E-03
(PID.TID 0000.0001) %MON forcing_qsw_max              =   0.0000000000000E+00
(PID.TID 0000.0001) %MON forcing_qsw_min              =  -1.0018622139962E+01
(PID.TID 0000.0001) %MON forcing_qsw_mean             =  -3.3367782255568E-01
(PID.TID 0000.0001) %MON forcing_qsw_sd               =   1.0580807511051E+00
(PID.TID 0000.0001) %MON forcing_qsw_del2             =   3.4074449806685E-06
(PID.TID 0000.0001) %MON forcing_empmr_max            =   2.2426648641414E-04
(PID.TID 0000.0001) %MON forcing_empmr_min            =  -1.1302737737730E-03
(PID.TID 0000.0001) %MON forcing_empmr_mean           =   4.1067958685473E-05
(PID.TID 0000.0001) %MON forcing_empmr_sd             =   1.1149649658018E-04
(PID.TID 0000.0001) %MON forcing_empmr_del2           =   9.8628925114105E-10
(PID.TID 0000.0001) %MON forcing_fu_max               =   5.6544542821050E-01
(PID.TID 0000.0001) %MON forcing_fu_min               =  -1.7567736953550E-01
(PID.TID 0000.0001) %MON forcing_fu_mean              =   9.7482042422394E-02
(PID.TID 0000.0001) %MON forcing_fu_sd                =   1.3447118671293E-01
(PID.TID 0000.0001) %MON forcing_fu_del2              =   1.6967479740518E-07
(PID.TID 0000.0001) %MON forcing_fv_max               =   4.1666419900636E-01
(PID.TID 0000.0001) %MON forcing_fv_min               =  -4.7223414334273E-01
(PID.TID 0000.0001) %MON forcing_fv_mean              =   2.8590035673947E-02
(PID.TID 0000.0001) %MON forcing_fv_sd                =   1.5219004751993E-01
(PID.TID 0000.0001) %MON forcing_fv_del2              =   3.2490999362108E-07
(PID.TID 0000.0001) %MON trAdv_CFL_u_max              =   7.6869339700029E-02
(PID.TID 0000.0001) %MON trAdv_CFL_v_max              =   1.6867241204257E-01
(PID.TID 0000.0001) %MON trAdv_CFL_w_max              =   5.2094498602514E-01
(PID.TID 0000.0001) %MON advcfl_uvel_max              =   7.6869338653383E-02
(PID.TID 0000.0001) %MON advcfl_vvel_max              =   1.6872148920127E-01
(PID.TID 0000.0001) %MON advcfl_wvel_max              =   5.1226256959139E-01
(PID.TID 0000.0001) %MON advcfl_W_hf_max              =   5.2094498602514E-01
(PID.TID 0000.0001) %MON pe_b_mean                    =  -1.5269103694368E-03
(PID.TID 0000.0001) %MON ke_max                       =   3.2381312406374E+00
(PID.TID 0000.0001) %MON ke_mean                      =   2.5977994470624E-03
(PID.TID 0000.0001) %MON ke_vol                       =   4.5818637279720E+16
(PID.TID 0000.0001) %MON vort_r_min                   =  -5.1369493572870E-04
(PID.TID 0000.0001) %MON vort_r_max                   =   7.7663080127274E-04
(PID.TID 0000.0001) %MON vort_a_mean                  =   8.2147620580607E-05
(PID.TID 0000.0001) %MON vort_a_sd                    =   1.0157502158998E-05
(PID.TID 0000.0001) %MON vort_p_mean                  =   8.4848841807272E-05
(PID.TID 0000.0001) %MON vort_p_sd                    =   3.5003231963868E-05
(PID.TID 0000.0001) %MON surfExpan_theta_mean         =  -4.7704672907170E-04
(PID.TID 0000.0001) %MON surfExpan_salt_mean          =  -1.1335492392566E-03
(PID.TID 0000.0001) // =======================================================
(PID.TID 0000.0001) // End MONITOR dynamic field statistics
(PID.TID 0000.0001) // =======================================================
(PID.TID 0000.0001) // =======================================================
(PID.TID 0000.0001) // Begin OBCS MONITOR field statistics
(PID.TID 0000.0001) // =======================================================
(PID.TID 0000.0001) %MON obc_N_vVel_max               =   6.9406954362584E-01
(PID.TID 0000.0001) %MON obc_N_vVel_min               =  -3.2488788876920E-01
(PID.TID 0000.0001) %MON obc_N_vVel_mean              =   1.3301629419791E-02
(PID.TID 0000.0001) %MON obc_N_vVel_sd                =   6.4519750541269E-02
(PID.TID 0000.0001) %MON obc_N_vVel_Int               =   1.9041394863546E+08
(PID.TID 0000.0001) %MON obc_S_vVel_max               =   2.6695680775817E+00
(PID.TID 0000.0001) %MON obc_S_vVel_min               =  -2.6321008674783E-01
(PID.TID 0000.0001) %MON obc_S_vVel_mean              =  -5.5958545034757E-03
(PID.TID 0000.0001) %MON obc_S_vVel_sd                =   3.6491707287936E-02
(PID.TID 0000.0001) %MON obc_S_vVel_Int               =  -1.7035403723358E+08
(PID.TID 0000.0001) %MON obc_N_theta_max              =   1.6389627614545E+01
(PID.TID 0000.0001) %MON obc_N_theta_min              =   1.8895914139009E+00
(PID.TID 0000.0001) %MON obc_N_theta_mean             =   5.1588771237882E+00
(PID.TID 0000.0001) %MON obc_N_theta_sd               =   3.4826038600191E+00
(PID.TID 0000.0001) %MON obc_S_theta_max              =   2.5543502825894E+01
(PID.TID 0000.0001) %MON obc_S_theta_min              =   1.4633011889082E+00
(PID.TID 0000.0001) %MON obc_S_theta_mean             =   5.4595465098672E+00
(PID.TID 0000.0001) %MON obc_S_theta_sd               =   5.3558828399123E+00
(PID.TID 0000.0001) %MON obc_N_salt_max               =   3.5910861930873E+01
(PID.TID 0000.0001) %MON obc_N_salt_min               =   3.3295091106912E+01
(PID.TID 0000.0001) %MON obc_N_salt_mean              =   3.5114560172537E+01
(PID.TID 0000.0001) %MON obc_N_salt_sd                =   3.0984766009526E-01
(PID.TID 0000.0001) %MON obc_S_salt_max               =   3.7318250249244E+01
(PID.TID 0000.0001) %MON obc_S_salt_min               =   3.4844695044902E+01
(PID.TID 0000.0001) %MON obc_S_salt_mean              =   3.5168371932001E+01
(PID.TID 0000.0001) %MON obc_S_salt_sd                =   4.5716619308913E-01
(PID.TID 0000.0001) // =======================================================
(PID.TID 0000.0001) // End OBCS MONITOR field statistics
(PID.TID 0000.0001) // =======================================================
(PID.TID 0000.0001) // =======================================================
(PID.TID 0000.0001) // Begin MONITOR EXF statistics
(PID.TID 0000.0001) // =======================================================
(PID.TID 0000.0001) %MON exf_tsnumber                 =                    14
(PID.TID 0000.0001) %MON exf_time_sec                 =   3.3600000000000E+03
(PID.TID 0000.0001) %MON exf_ustress_max              =   5.6351419946526E-01
(PID.TID 0000.0001) %MON exf_ustress_min              =  -1.7528906946616E-01
(PID.TID 0000.0001) %MON exf_ustress_mean             =   9.7256860019714E-02
(PID.TID 0000.0001) %MON exf_ustress_sd               =   1.3427005193905E-01
(PID.TID 0000.0001) %MON exf_ustress_del2             =   1.9865905047826E-07
(PID.TID 0000.0001) %MON exf_vstress_max              =   4.1761827164113E-01
(PID.TID 0000.0001) %MON exf_vstress_min              =  -4.7204625336822E-01
(PID.TID 0000.0001) %MON exf_vstress_mean             =   2.8796696765091E-02
(PID.TID 0000.0001) %MON exf_vstress_sd               =   1.5204132798727E-01
(PID.TID 0000.0001) %MON exf_vstress_del2             =   3.5612168244700E-07
(PID.TID 0000.0001) %MON exf_hflux_max                =   1.0533468391135E+03
(PID.TID 0000.0001) %MON exf_hflux_min                =  -1.2664279962493E+02
(PID.TID 0000.0001) %MON exf_hflux_mean               =   3.2175747549072E+02
(PID.TID 0000.0001) %MON exf_hflux_sd                 =   2.0953509824538E+02
(PID.TID 0000.0001) %MON exf_hflux_del2               =   8.5862290524116E-02
(PID.TID 0000.0001) %MON exf_sflux_max                =   2.2388146719692E-07
(PID.TID 0000.0001) %MON exf_sflux_min                =  -1.1435076921199E-06
(PID.TID 0000.0001) %MON exf_sflux_mean               =   4.0914427082323E-08
(PID.TID 0000.0001) %MON exf_sflux_sd                 =   1.1218666829604E-07
(PID.TID 0000.0001) %MON exf_sflux_del2               =   2.4625499879585E-11
(PID.TID 0000.0001) %MON exf_uwind_max                =   1.5545769102776E+01
(PID.TID 0000.0001) %MON exf_uwind_min                =  -1.0387552925460E+01
(PID.TID 0000.0001) %MON exf_uwind_mean               =   4.3607627306403E+00
(PID.TID 0000.0001) %MON exf_uwind_sd                 =   5.8908110498031E+00
(PID.TID 0000.0001) %MON exf_uwind_del2               =   1.6349528850343E-03
(PID.TID 0000.0001) %MON exf_vwind_max                =   1.4762128297445E+01
(PID.TID 0000.0001) %MON exf_vwind_min                =  -1.3045049006144E+01
(PID.TID 0000.0001) %MON exf_vwind_mean               =   1.7788373175866E+00
(PID.TID 0000.0001) %MON exf_vwind_sd                 =   7.3340343610647E+00
(PID.TID 0000.0001) %MON exf_vwind_del2               =   1.6798744229121E-03
(PID.TID 0000.0001) %MON exf_wspeed_max               =   1.8262099188297E+01
(PID.TID 0000.0001) %MON exf_wspeed_min               =   6.3957716172004E-02
(PID.TID 0000.0001) %MON exf_wspeed_mean              =   9.9017256353902E+00
(PID.TID 0000.0001) %MON exf_wspeed_sd                =   3.5533164889433E+00
(PID.TID 0000.0001) %MON exf_wspeed_del2              =   2.3440940509908E-03
(PID.TID 0000.0001) %MON exf_atemp_max                =   2.9778729962550E+02
(PID.TID 0000.0001) %MON exf_atemp_min                =   2.7437517525204E+02
(PID.TID 0000.0001) %MON exf_atemp_mean               =   2.8987852272173E+02
(PID.TID 0000.0001) %MON exf_atemp_sd                 =   4.2885983493589E+00
(PID.TID 0000.0001) %MON exf_atemp_del2               =   3.7038035079061E-03
(PID.TID 0000.0001) %MON exf_aqh_max                  =   1.4955639003459E-02
(PID.TID 0000.0001) %MON exf_aqh_min                  =   3.1454102469503E-03
(PID.TID 0000.0001) %MON exf_aqh_mean                 =   9.5831641113433E-03
(PID.TID 0000.0001) %MON exf_aqh_sd                   =   2.2474867351301E-03
(PID.TID 0000.0001) %MON exf_aqh_del2                 =   2.1296364706593E-06
(PID.TID 0000.0001) %MON exf_lwflux_max               =   1.5568527955867E+02
(PID.TID 0000.0001) %MON exf_lwflux_min               =  -4.8892000379892E+00
(PID.TID 0000.0001) %MON exf_lwflux_mean              =   7.2711954451553E+01
(PID.TID 0000.0001) %MON exf_lwflux_sd                =   2.8142895622414E+01
(PID.TID 0000.0001) %MON exf_lwflux_del2              =   1.7288405894541E-02
(PID.TID 0000.0001) %MON exf_evap_max                 =   2.4713454993080E-07
(PID.TID 0000.0001) %MON exf_evap_min                 =  -4.0908667063326E-08
(PID.TID 0000.0001) %MON exf_evap_mean                =   7.8989700045824E-08
(PID.TID 0000.0001) %MON exf_evap_sd                  =   5.5281621804244E-08
(PID.TID 0000.0001) %MON exf_evap_del2                =   2.1335997023279E-11
(PID.TID 0000.0001) %MON exf_precip_max               =   1.1416476807232E-06
(PID.TID 0000.0001) %MON exf_precip_min               =   0.0000000000000E+00
(PID.TID 0000.0001) %MON exf_precip_mean              =   3.6486793391510E-08
(PID.TID 0000.0001) %MON exf_precip_sd                =   8.6682218369252E-08
(PID.TID 0000.0001) %MON exf_precip_del2              =   1.8894154995296E-11
(PID.TID 0000.0001) %MON exf_swflux_max               =   0.0000000000000E+00
(PID.TID 0000.0001) %MON exf_swflux_min               =  -8.9640303357555E+00
(PID.TID 0000.0001) %MON exf_swflux_mean              =  -2.9855384123403E-01
(PID.TID 0000.0001) %MON exf_swflux_sd                =   9.4670382993619E-01
(PID.TID 0000.0001) %MON exf_swflux_del2              =   2.0478353573278E-04
(PID.TID 0000.0001) %MON exf_swdown_max               =   9.9600337063950E+00
(PID.TID 0000.0001) %MON exf_swdown_min               =   0.0000000000000E+00
(PID.TID 0000.0001) %MON exf_swdown_mean              =   3.3172649026003E-01
(PID.TID 0000.0001) %MON exf_swdown_sd                =   1.0518931443735E+00
(PID.TID 0000.0001) %MON exf_swdown_del2              =   2.2753726192531E-04
(PID.TID 0000.0001) %MON exf_lwdown_max               =   4.0318937228845E+02
(PID.TID 0000.0001) %MON exf_lwdown_min               =   2.4850581361628E+02
(PID.TID 0000.0001) %MON exf_lwdown_mean              =   3.4206543515668E+02
(PID.TID 0000.0001) %MON exf_lwdown_sd                =   2.7663489099576E+01
(PID.TID 0000.0001) %MON exf_lwdown_del2              =   7.4688761015922E-02
(PID.TID 0000.0001) %MON exf_apressure_max            =   1.0296179734123E+05
(PID.TID 0000.0001) %MON exf_apressure_min            =   9.9645092118575E+04
(PID.TID 0000.0001) %MON exf_apressure_mean           =   1.0183463430718E+05
(PID.TID 0000.0001) %MON exf_apressure_sd             =   8.3352728112997E+02
(PID.TID 0000.0001) %MON exf_apressure_del2           =   2.2278306552211E+01
(PID.TID 0000.0001) %MON exf_runoff_max               =   4.4374798712073E-08
(PID.TID 0000.0001) %MON exf_runoff_min               =   0.0000000000000E+00
(PID.TID 0000.0001) %MON exf_runoff_mean              =   1.5884795719908E-09
(PID.TID 0000.0001) %MON exf_runoff_sd                =   5.3901959599983E-09
(PID.TID 0000.0001) %MON exf_runoff_del2              =   1.2741189756369E-12
(PID.TID 0000.0001) // =======================================================
(PID.TID 0000.0001) // End MONITOR EXF statistics
(PID.TID 0000.0001) // =======================================================
 cg2d: Sum(rhs),rhsMax =   2.21429472337916E+03  8.02322224711579E-02
(PID.TID 0000.0001)      cg2d_init_res =   1.47334176005750E+00
(PID.TID 0000.0001)      cg2d_iters(min,last) =      -1     311
(PID.TID 0000.0001)      cg2d_last_res =   6.79956786259599E-12
(PID.TID 0000.0001) // =======================================================
(PID.TID 0000.0001) // Begin MONITOR dynamic field statistics
(PID.TID 0000.0001) // =======================================================
(PID.TID 0000.0001) %MON time_tsnumber                =                    15
(PID.TID 0000.0001) %MON time_secondsf                =   3.6000000000000E+03
(PID.TID 0000.0001) %MON dynstat_eta_max              =   7.5404027914613E-01
(PID.TID 0000.0001) %MON dynstat_eta_min              =  -1.4019385802118E+00
(PID.TID 0000.0001) %MON dynstat_eta_mean             =  -7.5301744511571E-02
(PID.TID 0000.0001) %MON dynstat_eta_sd               =   2.8699801918932E-01
(PID.TID 0000.0001) %MON dynstat_eta_del2             =   2.4735098857400E-06
(PID.TID 0000.0001) %MON dynstat_uvel_max             =   1.2632389890293E+00
(PID.TID 0000.0001) %MON dynstat_uvel_min             =  -8.7355424019052E-01
(PID.TID 0000.0001) %MON dynstat_uvel_mean            =   3.4568149024013E-03
(PID.TID 0000.0001) %MON dynstat_uvel_sd              =   5.2436214269145E-02
(PID.TID 0000.0001) %MON dynstat_uvel_del2            =   5.4820761834785E-07
(PID.TID 0000.0001) %MON dynstat_vvel_max             =   2.7285896357225E+00
(PID.TID 0000.0001) %MON dynstat_vvel_min             =  -8.8310588373869E-01
(PID.TID 0000.0001) %MON dynstat_vvel_mean            =  -4.7982317234234E-03
(PID.TID 0000.0001) %MON dynstat_vvel_sd              =   4.9584188366583E-02
(PID.TID 0000.0001) %MON dynstat_vvel_del2            =   5.0555364598374E-07
(PID.TID 0000.0001) %MON dynstat_wvel_max             =   3.9442877694180E-02
(PID.TID 0000.0001) %MON dynstat_wvel_min             =  -3.3084130296815E-02
(PID.TID 0000.0001) %MON dynstat_wvel_mean            =  -1.9261330028615E-05
(PID.TID 0000.0001) %MON dynstat_wvel_sd              =   6.1100282941960E-04
(PID.TID 0000.0001) %MON dynstat_wvel_del2            =   7.0321730801494E-08
(PID.TID 0000.0001) %MON dynstat_theta_max            =   2.6139453395105E+01
(PID.TID 0000.0001) %MON dynstat_theta_min            =   1.4688656310012E+00
(PID.TID 0000.0001) %MON dynstat_theta_mean           =   5.5098976455286E+00
(PID.TID 0000.0001) %MON dynstat_theta_sd             =   4.7732707684757E+00
(PID.TID 0000.0001) %MON dynstat_theta_del2           =   4.0344230836834E-06
(PID.TID 0000.0001) %MON dynstat_salt_max             =   3.9138858173836E+01
(PID.TID 0000.0001) %MON dynstat_salt_min             =   3.3091716759355E+01
(PID.TID 0000.0001) %MON dynstat_salt_mean            =   3.5173368176182E+01
(PID.TID 0000.0001) %MON dynstat_salt_sd              =   3.7892324558233E-01
(PID.TID 0000.0001) %MON dynstat_salt_del2            =   5.3363724047392E-07
(PID.TID 0000.0001) %MON dynstat_sst_max              =   2.6128315397639E+01
(PID.TID 0000.0001) %MON dynstat_sst_min              =   3.8601759116826E+00
(PID.TID 0000.0001) %MON dynstat_sst_mean             =   1.9631798671575E+01
(PID.TID 0000.0001) %MON dynstat_sst_sd               =   3.6354528071455E+00
(PID.TID 0000.0001) %MON dynstat_sst_del2             =   1.9419608714482E-05
(PID.TID 0000.0001) %MON dynstat_sss_max              =   3.7335724155018E+01
(PID.TID 0000.0001) %MON dynstat_sss_min              =   3.3091716759355E+01
(PID.TID 0000.0001) %MON dynstat_sss_mean             =   3.5868649974879E+01
(PID.TID 0000.0001) %MON dynstat_sss_sd               =   4.8747327977879E-01
(PID.TID 0000.0001) %MON dynstat_sss_del2             =   4.9010405455650E-06
(PID.TID 0000.0001) %MON forcing_qnet_max             =   1.0690572406368E+03
(PID.TID 0000.0001) %MON forcing_qnet_min             =  -1.8970708884656E+02
(PID.TID 0000.0001) %MON forcing_qnet_mean            =   3.2603609071727E+02
(PID.TID 0000.0001) %MON forcing_qnet_sd              =   2.1540862395607E+02
(PID.TID 0000.0001) %MON forcing_qnet_del2            =   1.1810533163100E-03
(PID.TID 0000.0001) %MON forcing_qsw_max              =   0.0000000000000E+00
(PID.TID 0000.0001) %MON forcing_qsw_min              =  -8.9640303357555E+00
(PID.TID 0000.0001) %MON forcing_qsw_mean             =  -2.9855384123403E-01
(PID.TID 0000.0001) %MON forcing_qsw_sd               =   9.4670382993619E-01
(PID.TID 0000.0001) %MON forcing_qsw_del2             =   3.0487665616508E-06
(PID.TID 0000.0001) %MON forcing_empmr_max            =   2.2388146719692E-04
(PID.TID 0000.0001) %MON forcing_empmr_min            =  -1.1435076921199E-03
(PID.TID 0000.0001) %MON forcing_empmr_mean           =   4.0914427082323E-05
(PID.TID 0000.0001) %MON forcing_empmr_sd             =   1.1218666829604E-04
(PID.TID 0000.0001) %MON forcing_empmr_del2           =   1.0025199617467E-09
(PID.TID 0000.0001) %MON forcing_fu_max               =   5.6348972670155E-01
(PID.TID 0000.0001) %MON forcing_fu_min               =  -1.7527483652193E-01
(PID.TID 0000.0001) %MON forcing_fu_mean              =   9.7361966628965E-02
(PID.TID 0000.0001) %MON forcing_fu_sd                =   1.3429806851590E-01
(PID.TID 0000.0001) %MON forcing_fu_del2              =   1.6962157214947E-07
(PID.TID 0000.0001) %MON forcing_fv_max               =   4.1760429734831E-01
(PID.TID 0000.0001) %MON forcing_fv_min               =  -4.7204574112583E-01
(PID.TID 0000.0001) %MON forcing_fv_mean              =   2.8729570161716E-02
(PID.TID 0000.0001) %MON forcing_fv_sd                =   1.5204794133175E-01
(PID.TID 0000.0001) %MON forcing_fv_del2              =   3.2681846088822E-07
(PID.TID 0000.0001) %MON trAdv_CFL_u_max              =   7.6641673180144E-02
(PID.TID 0000.0001) %MON trAdv_CFL_v_max              =   1.7240159529799E-01
(PID.TID 0000.0001) %MON trAdv_CFL_w_max              =   5.2237681643210E-01
(PID.TID 0000.0001) %MON advcfl_uvel_max              =   7.6641672136598E-02
(PID.TID 0000.0001) %MON advcfl_vvel_max              =   1.7245175750502E-01
(PID.TID 0000.0001) %MON advcfl_wvel_max              =   5.1367053615824E-01
(PID.TID 0000.0001) %MON advcfl_W_hf_max              =   5.2237681643210E-01
(PID.TID 0000.0001) %MON pe_b_mean                    =  -1.7160000898322E-03
(PID.TID 0000.0001) %MON ke_max                       =   3.4006704996287E+00
(PID.TID 0000.0001) %MON ke_mean                      =   2.6022420880351E-03
(PID.TID 0000.0001) %MON ke_vol                       =   4.5818637279720E+16
(PID.TID 0000.0001) %MON vort_r_min                   =  -5.1198324288182E-04
(PID.TID 0000.0001) %MON vort_r_max                   =   7.9288675016308E-04
(PID.TID 0000.0001) %MON vort_a_mean                  =   8.2147619744357E-05
(PID.TID 0000.0001) %MON vort_a_sd                    =   1.0160702170522E-05
(PID.TID 0000.0001) %MON vort_p_mean                  =   8.4848840943524E-05
(PID.TID 0000.0001) %MON vort_p_sd                    =   3.5007867515660E-05
(PID.TID 0000.0001) %MON surfExpan_theta_mean         =  -5.1438594609343E-04
(PID.TID 0000.0001) %MON surfExpan_salt_mean          =  -1.1937935373094E-03
(PID.TID 0000.0001) // =======================================================
(PID.TID 0000.0001) // End MONITOR dynamic field statistics
(PID.TID 0000.0001) // =======================================================
(PID.TID 0000.0001) // =======================================================
(PID.TID 0000.0001) // Begin OBCS MONITOR field statistics
(PID.TID 0000.0001) // =======================================================
(PID.TID 0000.0001) %MON obc_N_vVel_max               =   6.9386348641532E-01
(PID.TID 0000.0001) %MON obc_N_vVel_min               =  -3.2526955108089E-01
(PID.TID 0000.0001) %MON obc_N_vVel_mean              =   1.3207329893574E-02
(PID.TID 0000.0001) %MON obc_N_vVel_sd                =   6.4494935757103E-02
(PID.TID 0000.0001) %MON obc_N_vVel_Int               =   1.8906404295287E+08
(PID.TID 0000.0001) %MON obc_S_vVel_max               =   2.7285896357225E+00
(PID.TID 0000.0001) %MON obc_S_vVel_min               =  -2.6325457576441E-01
(PID.TID 0000.0001) %MON obc_S_vVel_mean              =  -6.2604081018520E-03
(PID.TID 0000.0001) %MON obc_S_vVel_sd                =   3.6578004715070E-02
(PID.TID 0000.0001) %MON obc_S_vVel_Int               =  -1.9058497575623E+08
(PID.TID 0000.0001) %MON obc_N_theta_max              =   1.6389539512358E+01
(PID.TID 0000.0001) %MON obc_N_theta_min              =   1.8895914629663E+00
(PID.TID 0000.0001) %MON obc_N_theta_mean             =   5.1588697396382E+00
(PID.TID 0000.0001) %MON obc_N_theta_sd               =   3.4825945703428E+00
(PID.TID 0000.0001) %MON obc_S_theta_max              =   2.5543400077115E+01
(PID.TID 0000.0001) %MON obc_S_theta_min              =   1.4633015851955E+00
(PID.TID 0000.0001) %MON obc_S_theta_mean             =   5.4595457048426E+00
(PID.TID 0000.0001) %MON obc_S_theta_sd               =   5.3558789690521E+00
(PID.TID 0000.0001) %MON obc_N_salt_max               =   3.5910861522510E+01
(PID.TID 0000.0001) %MON obc_N_salt_min               =   3.3295096609545E+01
(PID.TID 0000.0001) %MON obc_N_salt_mean              =   3.5114559876550E+01
(PID.TID 0000.0001) %MON obc_N_salt_sd                =   3.0984754112533E-01
(PID.TID 0000.0001) %MON obc_S_salt_max               =   3.7318243364860E+01
(PID.TID 0000.0001) %MON obc_S_salt_min               =   3.4844695097122E+01
(PID.TID 0000.0001) %MON obc_S_salt_mean              =   3.5168371860084E+01
(PID.TID 0000.0001) %MON obc_S_salt_sd                =   4.5716584210290E-01
(PID.TID 0000.0001) // =======================================================
(PID.TID 0000.0001) // End OBCS MONITOR field statistics
(PID.TID 0000.0001) // =======================================================
 Computing Diagnostic #     23  ETAN         Counter:      15   Parms: SM      M1      
 Computing Diagnostic #     80  oceTAUX      Counter:      15   Parms: UU      U1      
           Vector  Mate for  oceTAUX      Diagnostic #     81  oceTAUY  exists 
 Computing Diagnostic #     81  oceTAUY      Counter:      15   Parms: VV      U1      
           Vector  Mate for  oceTAUY      Diagnostic #     80  oceTAUX  exists 
 Computing Diagnostic #    185  EXFuwind     Counter:      15   Parms: UM      U1      
 Computing Diagnostic #    186  EXFvwind     Counter:      15   Parms: VM      U1      
 Computing Diagnostic #     26  THETA        Counter:      15   Parms: SMR     MR      
 Computing Diagnostic #     27  SALT         Counter:      15   Parms: SMR     MR      
 Computing Diagnostic #     30  UVEL         Counter:      15   Parms: UUR     MR      
           Vector  Mate for  UVEL         Diagnostic #     31  VVEL     exists 
 Computing Diagnostic #     31  VVEL         Counter:      15   Parms: VVR     MR      
           Vector  Mate for  VVEL         Diagnostic #     30  UVEL     exists 
 Computing Diagnostic #     32  WVEL         Counter:      15   Parms: WM      LR      
(PID.TID 0000.0001) %CHECKPOINT        15 ckptA
(PID.TID 0000.0001)   Seconds in section "ALL                    [THE_MODEL_MAIN]":
(PID.TID 0000.0001)           User time:   36.4473884552717
(PID.TID 0000.0001)         System time:  0.000000000000000E+000
(PID.TID 0000.0001)     Wall clock time:   80.4183909893036
(PID.TID 0000.0001)          No. starts:           1
(PID.TID 0000.0001)           No. stops:           1
(PID.TID 0000.0001)   Seconds in section "INITIALISE_FIXED       [THE_MODEL_MAIN]":
(PID.TID 0000.0001)           User time:   1.85997196286917
(PID.TID 0000.0001)         System time:  0.000000000000000E+000
(PID.TID 0000.0001)     Wall clock time:   5.71854996681213
(PID.TID 0000.0001)          No. starts:           1
(PID.TID 0000.0001)           No. stops:           1
(PID.TID 0000.0001)   Seconds in section "THE_MAIN_LOOP          [THE_MODEL_MAIN]":
(PID.TID 0000.0001)           User time:   34.5874016284943
(PID.TID 0000.0001)         System time:  0.000000000000000E+000
(PID.TID 0000.0001)     Wall clock time:   74.6998109817505
(PID.TID 0000.0001)          No. starts:           1
(PID.TID 0000.0001)           No. stops:           1
(PID.TID 0000.0001)   Seconds in section "INITIALISE_VARIA    [THE_MAIN_LOOP]":
(PID.TID 0000.0001)           User time:   1.46925389766693
(PID.TID 0000.0001)         System time:  0.000000000000000E+000
(PID.TID 0000.0001)     Wall clock time:   9.15024900436401
(PID.TID 0000.0001)          No. starts:           1
(PID.TID 0000.0001)           No. stops:           1
(PID.TID 0000.0001)   Seconds in section "MAIN LOOP           [THE_MAIN_LOOP]":
(PID.TID 0000.0001)           User time:   33.1181378364563
(PID.TID 0000.0001)         System time:  0.000000000000000E+000
(PID.TID 0000.0001)     Wall clock time:   65.5495450496674
(PID.TID 0000.0001)          No. starts:           1
(PID.TID 0000.0001)           No. stops:           1
(PID.TID 0000.0001)   Seconds in section "MAIN_DO_LOOP        [THE_MAIN_LOOP]":
(PID.TID 0000.0001)           User time:   33.1180512905121
(PID.TID 0000.0001)         System time:  0.000000000000000E+000
(PID.TID 0000.0001)     Wall clock time:   65.5494508743286
(PID.TID 0000.0001)          No. starts:          15
(PID.TID 0000.0001)           No. stops:          15
(PID.TID 0000.0001)   Seconds in section "FORWARD_STEP        [MAIN_DO_LOOP]":
(PID.TID 0000.0001)           User time:   33.1178638935089
(PID.TID 0000.0001)         System time:  0.000000000000000E+000
(PID.TID 0000.0001)     Wall clock time:   65.5492594242096
(PID.TID 0000.0001)          No. starts:          15
(PID.TID 0000.0001)           No. stops:          15
(PID.TID 0000.0001)   Seconds in section "DO_STATEVARS_DIAGS  [FORWARD_STEP]":
(PID.TID 0000.0001)           User time:  0.367696523666382
(PID.TID 0000.0001)         System time:  0.000000000000000E+000
(PID.TID 0000.0001)     Wall clock time:  0.368959426879883
(PID.TID 0000.0001)          No. starts:          45
(PID.TID 0000.0001)           No. stops:          45
(PID.TID 0000.0001)   Seconds in section "LOAD_FIELDS_DRIVER  [FORWARD_STEP]":
(PID.TID 0000.0001)           User time:  0.189793825149536
(PID.TID 0000.0001)         System time:  0.000000000000000E+000
(PID.TID 0000.0001)     Wall clock time:  0.784572601318359
(PID.TID 0000.0001)          No. starts:          15
(PID.TID 0000.0001)           No. stops:          15
(PID.TID 0000.0001)   Seconds in section "EXF_GETFORCING     [LOAD_FLDS_DRIVER]":
(PID.TID 0000.0001)           User time:  0.189440250396729
(PID.TID 0000.0001)         System time:  0.000000000000000E+000
(PID.TID 0000.0001)     Wall clock time:  0.784203052520752
(PID.TID 0000.0001)          No. starts:          15
(PID.TID 0000.0001)           No. stops:          15
(PID.TID 0000.0001)   Seconds in section "EXTERNAL_FLDS_LOAD [LOAD_FLDS_DRIVER]":
(PID.TID 0000.0001)           User time:  8.702278137207031E-005
(PID.TID 0000.0001)         System time:  0.000000000000000E+000
(PID.TID 0000.0001)     Wall clock time:  8.893013000488281E-005
(PID.TID 0000.0001)          No. starts:          15
(PID.TID 0000.0001)           No. stops:          15
(PID.TID 0000.0001)   Seconds in section "DO_ATMOSPHERIC_PHYS [FORWARD_STEP]":
(PID.TID 0000.0001)           User time:  7.557868957519531E-005
(PID.TID 0000.0001)         System time:  0.000000000000000E+000
(PID.TID 0000.0001)     Wall clock time:  8.821487426757812E-005
(PID.TID 0000.0001)          No. starts:          15
(PID.TID 0000.0001)           No. stops:          15
(PID.TID 0000.0001)   Seconds in section "DO_OCEANIC_PHYS     [FORWARD_STEP]":
(PID.TID 0000.0001)           User time:   3.87066864967346
(PID.TID 0000.0001)         System time:  0.000000000000000E+000
(PID.TID 0000.0001)     Wall clock time:   3.95499396324158
(PID.TID 0000.0001)          No. starts:          15
(PID.TID 0000.0001)           No. stops:          15
(PID.TID 0000.0001)   Seconds in section "KPP_CALC [DO_OCEANIC_PHYS]":
(PID.TID 0000.0001)           User time:   3.34157180786133
(PID.TID 0000.0001)         System time:  0.000000000000000E+000
(PID.TID 0000.0001)     Wall clock time:   3.40748071670532
(PID.TID 0000.0001)          No. starts:          15
(PID.TID 0000.0001)           No. stops:          15
(PID.TID 0000.0001)   Seconds in section "DYNAMICS            [FORWARD_STEP]":
(PID.TID 0000.0001)           User time:   9.95265126228333
(PID.TID 0000.0001)         System time:  0.000000000000000E+000
(PID.TID 0000.0001)     Wall clock time:   10.0073275566101
(PID.TID 0000.0001)          No. starts:          15
(PID.TID 0000.0001)           No. stops:          15
(PID.TID 0000.0001)   Seconds in section "UPDATE_SURF_DR      [FORWARD_STEP]":
(PID.TID 0000.0001)           User time:  7.938861846923828E-002
(PID.TID 0000.0001)         System time:  0.000000000000000E+000
(PID.TID 0000.0001)     Wall clock time:  7.991456985473633E-002
(PID.TID 0000.0001)          No. starts:          15
(PID.TID 0000.0001)           No. stops:          15
(PID.TID 0000.0001)   Seconds in section "SOLVE_FOR_PRESSURE  [FORWARD_STEP]":
(PID.TID 0000.0001)           User time:   1.66623020172119
(PID.TID 0000.0001)         System time:  0.000000000000000E+000
(PID.TID 0000.0001)     Wall clock time:   1.66721844673157
(PID.TID 0000.0001)          No. starts:          15
(PID.TID 0000.0001)           No. stops:          15
(PID.TID 0000.0001)   Seconds in section "MOM_CORRECTION_STEP [FORWARD_STEP]":
(PID.TID 0000.0001)           User time:  0.213469982147217
(PID.TID 0000.0001)         System time:  0.000000000000000E+000
(PID.TID 0000.0001)     Wall clock time:  0.213714599609375
(PID.TID 0000.0001)          No. starts:          15
(PID.TID 0000.0001)           No. stops:          15
(PID.TID 0000.0001)   Seconds in section "INTEGR_CONTINUITY   [FORWARD_STEP]":
(PID.TID 0000.0001)           User time:  0.294084548950195
(PID.TID 0000.0001)         System time:  0.000000000000000E+000
(PID.TID 0000.0001)     Wall clock time:  0.294392824172974
(PID.TID 0000.0001)          No. starts:          15
(PID.TID 0000.0001)           No. stops:          15
(PID.TID 0000.0001)   Seconds in section "BLOCKING_EXCHANGES  [FORWARD_STEP]":
(PID.TID 0000.0001)           User time:  0.960641860961914
(PID.TID 0000.0001)         System time:  0.000000000000000E+000
(PID.TID 0000.0001)     Wall clock time:  0.961500406265259
(PID.TID 0000.0001)          No. starts:          30
(PID.TID 0000.0001)           No. stops:          30
(PID.TID 0000.0001)   Seconds in section "THERMODYNAMICS      [FORWARD_STEP]":
(PID.TID 0000.0001)           User time:   6.03923845291138
(PID.TID 0000.0001)         System time:  0.000000000000000E+000
(PID.TID 0000.0001)     Wall clock time:   6.09864044189453
(PID.TID 0000.0001)          No. starts:          15
(PID.TID 0000.0001)           No. stops:          15
(PID.TID 0000.0001)   Seconds in section "TRC_CORRECTION_STEP [FORWARD_STEP]":
(PID.TID 0000.0001)           User time:  7.867813110351562E-005
(PID.TID 0000.0001)         System time:  0.000000000000000E+000
(PID.TID 0000.0001)     Wall clock time:  8.630752563476562E-005
(PID.TID 0000.0001)          No. starts:          15
(PID.TID 0000.0001)           No. stops:          15
(PID.TID 0000.0001)   Seconds in section "MONITOR             [FORWARD_STEP]":
(PID.TID 0000.0001)           User time:   1.08915662765503
(PID.TID 0000.0001)         System time:  0.000000000000000E+000
(PID.TID 0000.0001)     Wall clock time:   1.09328579902649
(PID.TID 0000.0001)          No. starts:          15
(PID.TID 0000.0001)           No. stops:          15
(PID.TID 0000.0001)   Seconds in section "DO_THE_MODEL_IO     [FORWARD_STEP]":
(PID.TID 0000.0001)           User time:   3.35005569458008
(PID.TID 0000.0001)         System time:  0.000000000000000E+000
(PID.TID 0000.0001)     Wall clock time:   28.0954821109772
(PID.TID 0000.0001)          No. starts:          15
(PID.TID 0000.0001)           No. stops:          15
(PID.TID 0000.0001)   Seconds in section "DO_WRITE_PICKUP     [FORWARD_STEP]":
(PID.TID 0000.0001)           User time:   5.04242086410522
(PID.TID 0000.0001)         System time:  0.000000000000000E+000
(PID.TID 0000.0001)     Wall clock time:   11.9272880554199
(PID.TID 0000.0001)          No. starts:          15
(PID.TID 0000.0001)           No. stops:          15
(PID.TID 0000.0001) // ======================================================
(PID.TID 0000.0001) // Tile <-> Tile communication statistics
(PID.TID 0000.0001) // ======================================================
(PID.TID 0000.0001) // o Tile number: 000001
(PID.TID 0000.0001) //         No. X exchanges =              0
(PID.TID 0000.0001) //            Max. X spins =              0
(PID.TID 0000.0001) //            Min. X spins =     1000000000
(PID.TID 0000.0001) //          Total. X spins =              0
(PID.TID 0000.0001) //            Avg. X spins =       0.00E+00
(PID.TID 0000.0001) //         No. Y exchanges =              0
(PID.TID 0000.0001) //            Max. Y spins =              0
(PID.TID 0000.0001) //            Min. Y spins =     1000000000
(PID.TID 0000.0001) //          Total. Y spins =              0
(PID.TID 0000.0001) //            Avg. Y spins =       0.00E+00
(PID.TID 0000.0001) // o Thread number: 000001
(PID.TID 0000.0001) //            No. barriers =          71542
(PID.TID 0000.0001) //      Max. barrier spins =              1
(PID.TID 0000.0001) //      Min. barrier spins =              1
(PID.TID 0000.0001) //     Total barrier spins =          71542
(PID.TID 0000.0001) //      Avg. barrier spins =       1.00E+00
PROGRAM MAIN: Execution ended Normally
