(PID.TID 0000.0001) 
(PID.TID 0000.0001) // ======================================================
(PID.TID 0000.0001) //                      MITgcm UV
(PID.TID 0000.0001) //                      =========
(PID.TID 0000.0001) // ======================================================
(PID.TID 0000.0001) // execution environment starting up...
(PID.TID 0000.0001) 
(PID.TID 0000.0001) // MITgcmUV version:  checkpoint67h
(PID.TID 0000.0001) // Build user:        anirban
(PID.TID 0000.0001) // Build host:        login1
(PID.TID 0000.0001) // Build date:        Tue Apr  9 16:47:31 PDT 2019
(PID.TID 0000.0001) 
(PID.TID 0000.0001) // =======================================================
(PID.TID 0000.0001) // Execution Environment parameter file "eedata"
(PID.TID 0000.0001) // =======================================================
(PID.TID 0000.0001) ># Example "eedata" file
(PID.TID 0000.0001) ># Lines beginning "#" are comments
(PID.TID 0000.0001) ># nTx - No. threads per process in X
(PID.TID 0000.0001) ># nTy - No. threads per process in Y
(PID.TID 0000.0001) > &EEPARMS
(PID.TID 0000.0001) > nTx=1,
(PID.TID 0000.0001) > nTy=1,
(PID.TID 0000.0001) ># debugMode=.TRUE.,
(PID.TID 0000.0001) > /
(PID.TID 0000.0001) ># Note: Some systems use & as the
(PID.TID 0000.0001) ># namelist terminator. Other systems
(PID.TID 0000.0001) ># use a / character (as shown here).
(PID.TID 0000.0001) 
(PID.TID 0000.0001) // =======================================================
(PID.TID 0000.0001) // Computational Grid Specification ( see files "SIZE.h" )
(PID.TID 0000.0001) //                                  ( and "eedata"       )
(PID.TID 0000.0001) // =======================================================
(PID.TID 0000.0001)      nPx =   97 ; /* No. processes in X */
(PID.TID 0000.0001)      nPy =    1 ; /* No. processes in Y */
(PID.TID 0000.0001)      nSx =   10 ; /* No. tiles in X per process */
(PID.TID 0000.0001)      nSy =    1 ; /* No. tiles in Y per process */
(PID.TID 0000.0001)      sNx =   33 ; /* Tile size in X */
(PID.TID 0000.0001)      sNy =   28 ; /* Tile size in Y */
(PID.TID 0000.0001)      OLx =    4 ; /* Tile overlap distance in X */
(PID.TID 0000.0001)      OLy =    4 ; /* Tile overlap distance in Y */
(PID.TID 0000.0001)      nTx =    1 ; /* No. threads in X per process */
(PID.TID 0000.0001)      nTy =    1 ; /* No. threads in Y per process */
(PID.TID 0000.0001)       Nr =  100 ; /* No. levels in the vertical   */
(PID.TID 0000.0001)       Nx =32010 ; /* Total domain size in X ( = nPx*nSx*sNx ) */
(PID.TID 0000.0001)       Ny =   28 ; /* Total domain size in Y ( = nPy*nSy*sNy ) */
(PID.TID 0000.0001)   nTiles =   10 ; /* Total no. tiles per process ( = nSx*nSy ) */
(PID.TID 0000.0001)   nProcs =   97 ; /* Total no. processes ( = nPx*nPy ) */
(PID.TID 0000.0001) nThreads =    1 ; /* Total no. threads per process ( = nTx*nTy ) */
(PID.TID 0000.0001) usingMPI =    T ; /* Flag used to control whether MPI is in use */
(PID.TID 0000.0001)                   /*  note: To execute a program with MPI calls */
(PID.TID 0000.0001)                   /*  it must be launched appropriately e.g     */
(PID.TID 0000.0001)                   /*  "mpirun -np 64 ......"                    */
(PID.TID 0000.0001) useCoupler=    F ;/* Flag used to control communications with   */
(PID.TID 0000.0001)                   /*  other model components, through a coupler */
(PID.TID 0000.0001) useNest2W_parent =    F ;/* Control 2-W Nesting comm */
(PID.TID 0000.0001) useNest2W_child  =    F ;/* Control 2-W Nesting comm */
(PID.TID 0000.0001) debugMode =    F ; /* print debug msg. (sequence of S/R calls)  */
(PID.TID 0000.0001) printMapIncludesZeros=    F ; /* print zeros in Std.Output maps */
(PID.TID 0000.0001) maxLengthPrt1D=   65 /* maxLength of 1D array printed to StdOut */
(PID.TID 0000.0001) 
(PID.TID 0000.0001) ======= Starting MPI parallel Run =========
(PID.TID 0000.0001)  My Processor Name (len:  9 ) = hpc-24-13
(PID.TID 0000.0001)  Located at (  0,  0) on processor grid (0: 96,0:  0)
(PID.TID 0000.0001)  Origin at  (     1,     1) on global grid (1: 32010,1:    28)
(PID.TID 0000.0001)  North neighbor = processor 0000
(PID.TID 0000.0001)  South neighbor = processor 0000
(PID.TID 0000.0001)   East neighbor = processor 0001
(PID.TID 0000.0001)   West neighbor = processor 0096
(PID.TID 0000.0001) // ======================================================
(PID.TID 0000.0001) // Mapping of tiles to threads
(PID.TID 0000.0001) // ======================================================
(PID.TID 0000.0001) // -o- Thread   1, tiles (   1:  10,   1:   1)
(PID.TID 0000.0001) 
(PID.TID 0000.0001) W2_READPARMS: opening data.exch2
(PID.TID 0000.0001)  OPEN_COPY_DATA_FILE: opening file data.exch2
(PID.TID 0000.0001) // =======================================================
(PID.TID 0000.0001) // Parameter file "data.exch2"
(PID.TID 0000.0001) // =======================================================
(PID.TID 0000.0001) ># EXCH2 Package: Wrapper-2 User Choice
(PID.TID 0000.0001) >#--------------------
(PID.TID 0000.0001) >#  preDefTopol   :: pre-defined Topology selector:
(PID.TID 0000.0001) >#                :: = 0 : topology defined from processing "data.exch2";
(PID.TID 0000.0001) >#                :: = 1 : simple, single facet topology;
(PID.TID 0000.0001) >#                :: = 2 : customized topology (w2_set_myown_facets)
(PID.TID 0000.0001) >#                :: = 3 : 6-facet Cube (3 face-dims: nRed, nGreen, nBlue).
(PID.TID 0000.0001) >#  dimsFacets    :: facet pair of dimensions (n1x,n1y, n2x,n2y ...)
(PID.TID 0000.0001) >#  facetEdgeLink :: Face-Edge connectivity map:
(PID.TID 0000.0001) >#    facetEdgeLink(i,j)=XX.1 : face(j)-edge(i) (i=1,2,3,4 <==> N,S,E,W)
(PID.TID 0000.0001) >#    is connected to Northern edge of face "XX" ; similarly,
(PID.TID 0000.0001) >#    = XX.2 : to Southern.E, XX.3 = Eastern.E, XX.4 = Western.E of face "XX"
(PID.TID 0000.0001) >#  blankList     :: List of "blank" tiles
(PID.TID 0000.0001) >#  W2_mapIO      :: global map IO selector (-1 = old type ; 0 = 1 long line in X
(PID.TID 0000.0001) >#                :: 1 = compact, mostly in Y dir)
(PID.TID 0000.0001) >#  W2_printMsg   :: option for information messages printing
(PID.TID 0000.0001) >#                :: <0 : write to log file ; =0 : minimum print ;
(PID.TID 0000.0001) >#                :: =1 : no duplicated print ; =2 : all processes do print
(PID.TID 0000.0001) >#--------------------
(PID.TID 0000.0001) > &W2_EXCH2_PARM01
(PID.TID 0000.0001) >  W2_printMsg= 0,
(PID.TID 0000.0001) >  W2_mapIO   = 1,
(PID.TID 0000.0001) >#
(PID.TID 0000.0001) >#-- 5 facets llc_270 topology (drop facet 6 and its connection):
(PID.TID 0000.0001) >  preDefTopol = 1,
(PID.TID 0000.0001) >  dimsFacets = 1815, 532,
(PID.TID 0000.0001) >  blankList =
(PID.TID 0000.0001) >   386,
(PID.TID 0000.0001) >   441,
(PID.TID 0000.0001) >   496,
(PID.TID 0000.0001) >   551,
(PID.TID 0000.0001) >   606,
(PID.TID 0000.0001) >   661,
(PID.TID 0000.0001) >   716,
(PID.TID 0000.0001) >   771,
(PID.TID 0000.0001) >   826,
(PID.TID 0000.0001) >   881,
(PID.TID 0000.0001) >   936,
(PID.TID 0000.0001) >   991,
(PID.TID 0000.0001) >   442,
(PID.TID 0000.0001) >   497,
(PID.TID 0000.0001) >   552,
(PID.TID 0000.0001) >   607,
(PID.TID 0000.0001) >   662,
(PID.TID 0000.0001) >   717,
(PID.TID 0000.0001) >   772,
(PID.TID 0000.0001) >   827,
(PID.TID 0000.0001) >   882,
(PID.TID 0000.0001) >   937,
(PID.TID 0000.0001) >   992,
(PID.TID 0000.0001) >   498,
(PID.TID 0000.0001) >   553,
(PID.TID 0000.0001) >   608,
(PID.TID 0000.0001) >   663,
(PID.TID 0000.0001) >   718,
(PID.TID 0000.0001) >   773,
(PID.TID 0000.0001) >   828,
(PID.TID 0000.0001) >   883,
(PID.TID 0000.0001) >   938,
(PID.TID 0000.0001) >   993,
(PID.TID 0000.0001) >   554,
(PID.TID 0000.0001) >   774,
(PID.TID 0000.0001) >   829,
(PID.TID 0000.0001) >   884,
(PID.TID 0000.0001) >   939,
(PID.TID 0000.0001) >   994,
(PID.TID 0000.0001) >   830,
(PID.TID 0000.0001) >   885,
(PID.TID 0000.0001) >   940,
(PID.TID 0000.0001) >   995,
(PID.TID 0000.0001) >   941,
(PID.TID 0000.0001) >   996,
(PID.TID 0000.0001) >   942,
(PID.TID 0000.0001) >   997,
(PID.TID 0000.0001) >    51,
(PID.TID 0000.0001) >    52,
(PID.TID 0000.0001) >    53,
(PID.TID 0000.0001) >   108,
(PID.TID 0000.0001) >    54,
(PID.TID 0000.0001) >   109,
(PID.TID 0000.0001) >   164,
(PID.TID 0000.0001) >   219,
(PID.TID 0000.0001) >   274,
(PID.TID 0000.0001) >   329,
(PID.TID 0000.0001) >   714,
(PID.TID 0000.0001) >   769,
(PID.TID 0000.0001) >   824,
(PID.TID 0000.0001) >   989,
(PID.TID 0000.0001) >    55,
(PID.TID 0000.0001) >   110,
(PID.TID 0000.0001) >   165,
(PID.TID 0000.0001) >   220,
(PID.TID 0000.0001) >   275,
(PID.TID 0000.0001) >   330,
(PID.TID 0000.0001) >   385,
(PID.TID 0000.0001) >   715,
(PID.TID 0000.0001) >   770,
(PID.TID 0000.0001) >   825,
(PID.TID 0000.0001) >   880,
(PID.TID 0000.0001) >   935,
(PID.TID 0000.0001) >   990,
(PID.TID 0000.0001) >  1045,
(PID.TID 0000.0001) > &
(PID.TID 0000.0001) 
(PID.TID 0000.0001) W2_READPARMS: finished reading data.exch2
(PID.TID 0000.0001) W2_useE2ioLayOut=    T ;/* T: use Exch2 glob IO map; F: use model default */
(PID.TID 0000.0001) W2_mapIO        =   1 ; /* select option for Exch2 global-IO map */
(PID.TID 0000.0001) W2_printMsg     =   0 ; /* select option for printing information */
(PID.TID 0000.0001) ===== Start setting W2 TOPOLOGY:
(PID.TID 0000.0001) W2_E2SETUP: number of Active Tiles =     970
(PID.TID 0000.0001) W2_E2SETUP: number of Blank Tiles  =      75
(PID.TID 0000.0001) W2_E2SETUP: Total number of Tiles  =    1045
(PID.TID 0000.0001) W2_SET_SINGLE_FACET: preDefTopol=  1 selected
(PID.TID 0000.0001) W2_E2SETUP: Total number of Facets =       1
(PID.TID 0000.0001) W2_SET_F2F_INDEX: index matrix for connected Facet-Edges:
(PID.TID 0000.0001) W2_SET_MAP_TILES: tile mapping within facet and global Map:
(PID.TID 0000.0001)  W2_mapIO = 1815 (=   55*sNx)
(PID.TID 0000.0001)  Global Map (IO): X-size=    1815 , Y-size=     532
(PID.TID 0000.0001) W2_SET_MAP_TILES: tile offset within facet and global Map:
- facet  1 : X-size=  1815 , Y-size=   532 ; 1045 tiles (Tx,Ty=  55,  19)
(PID.TID 0000.0001) W2_SET_MAP_CUMSUM: setting Facet Matrix for CUMUL-SUM
 Facet Matrix for CUMUL-SUM (nFacets=   1, nActive=   1 ):
- facet  1 :  0  0 ,
(PID.TID 0000.0001) W2_SET_MAP_CUMSUM: done (skip Tile Matrix setting)
(PID.TID 0000.0001) W2_SET_TILE2TILES: tile neighbours and index connection:
(PID.TID 0000.0001) current Max.Nb.Neighbours (e.g., on tile    8 ) =  4
(PID.TID 0000.0001) ===== W2 TILE TOPOLOGY =====
(PID.TID 0000.0001)  TILE:     1 (bi,bj=   1   1 ), Nb of Neighbours =  2
(PID.TID 0000.0001)     NEIGHBOUR  1 = TILE   56 (n=  2) Comm = MSG (PROC=    6)
(PID.TID 0000.0001)     NEIGHBOUR  2 = TILE    2 (n=  3) Comm = PUT (PROC=    1)
(PID.TID 0000.0001)  TILE:     2 (bi,bj=   2   1 ), Nb of Neighbours =  3
(PID.TID 0000.0001)     NEIGHBOUR  1 = TILE   57 (n=  2) Comm = MSG (PROC=    6)
(PID.TID 0000.0001)     NEIGHBOUR  2 = TILE    3 (n=  3) Comm = PUT (PROC=    1)
(PID.TID 0000.0001)     NEIGHBOUR  3 = TILE    1 (n=  2) Comm = PUT (PROC=    1)
(PID.TID 0000.0001)  TILE:     3 (bi,bj=   3   1 ), Nb of Neighbours =  3
(PID.TID 0000.0001)     NEIGHBOUR  1 = TILE   58 (n=  2) Comm = MSG (PROC=    6)
(PID.TID 0000.0001)     NEIGHBOUR  2 = TILE    4 (n=  3) Comm = PUT (PROC=    1)
(PID.TID 0000.0001)     NEIGHBOUR  3 = TILE    2 (n=  2) Comm = PUT (PROC=    1)
(PID.TID 0000.0001)  TILE:     4 (bi,bj=   4   1 ), Nb of Neighbours =  3
(PID.TID 0000.0001)     NEIGHBOUR  1 = TILE   59 (n=  2) Comm = MSG (PROC=    6)
(PID.TID 0000.0001)     NEIGHBOUR  2 = TILE    5 (n=  3) Comm = PUT (PROC=    1)
(PID.TID 0000.0001)     NEIGHBOUR  3 = TILE    3 (n=  2) Comm = PUT (PROC=    1)
(PID.TID 0000.0001)  TILE:     5 (bi,bj=   5   1 ), Nb of Neighbours =  3
(PID.TID 0000.0001)     NEIGHBOUR  1 = TILE   60 (n=  2) Comm = MSG (PROC=    6)
(PID.TID 0000.0001)     NEIGHBOUR  2 = TILE    6 (n=  3) Comm = PUT (PROC=    1)
(PID.TID 0000.0001)     NEIGHBOUR  3 = TILE    4 (n=  2) Comm = PUT (PROC=    1)
(PID.TID 0000.0001)  TILE:     6 (bi,bj=   6   1 ), Nb of Neighbours =  3
(PID.TID 0000.0001)     NEIGHBOUR  1 = TILE   61 (n=  2) Comm = MSG (PROC=    6)
(PID.TID 0000.0001)     NEIGHBOUR  2 = TILE    7 (n=  3) Comm = PUT (PROC=    1)
(PID.TID 0000.0001)     NEIGHBOUR  3 = TILE    5 (n=  2) Comm = PUT (PROC=    1)
(PID.TID 0000.0001)  TILE:     7 (bi,bj=   7   1 ), Nb of Neighbours =  3
(PID.TID 0000.0001)     NEIGHBOUR  1 = TILE   62 (n=  2) Comm = MSG (PROC=    6)
(PID.TID 0000.0001)     NEIGHBOUR  2 = TILE    8 (n=  4) Comm = PUT (PROC=    1)
(PID.TID 0000.0001)     NEIGHBOUR  3 = TILE    6 (n=  2) Comm = PUT (PROC=    1)
(PID.TID 0000.0001)  TILE:     8 (bi,bj=   8   1 ), Nb of Neighbours =  4
(PID.TID 0000.0001)     NEIGHBOUR  1 = TILE   63 (n=  2) Comm = MSG (PROC=    6)
(PID.TID 0000.0001)     NEIGHBOUR  2 = TILE  998 (n=  1) Comm = MSG (PROC=   93)
(PID.TID 0000.0001)     NEIGHBOUR  3 = TILE    9 (n=  4) Comm = PUT (PROC=    1)
(PID.TID 0000.0001)     NEIGHBOUR  4 = TILE    7 (n=  2) Comm = PUT (PROC=    1)
(PID.TID 0000.0001)  TILE:     9 (bi,bj=   9   1 ), Nb of Neighbours =  4
(PID.TID 0000.0001)     NEIGHBOUR  1 = TILE   64 (n=  2) Comm = MSG (PROC=    6)
(PID.TID 0000.0001)     NEIGHBOUR  2 = TILE  999 (n=  1) Comm = MSG (PROC=   93)
(PID.TID 0000.0001)     NEIGHBOUR  3 = TILE   10 (n=  4) Comm = PUT (PROC=    1)
(PID.TID 0000.0001)     NEIGHBOUR  4 = TILE    8 (n=  3) Comm = PUT (PROC=    1)
(PID.TID 0000.0001)  TILE:    10 (bi,bj=  10   1 ), Nb of Neighbours =  4
(PID.TID 0000.0001)     NEIGHBOUR  1 = TILE   65 (n=  2) Comm = MSG (PROC=    6)
(PID.TID 0000.0001)     NEIGHBOUR  2 = TILE 1000 (n=  1) Comm = MSG (PROC=   93)
(PID.TID 0000.0001)     NEIGHBOUR  3 = TILE   11 (n=  4) Comm = MSG (PROC=    2)
(PID.TID 0000.0001)     NEIGHBOUR  4 = TILE    9 (n=  3) Comm = PUT (PROC=    1)
(PID.TID 0000.0001) =====       setting W2 TOPOLOGY: Done
(PID.TID 0000.0001) 
(PID.TID 0000.0001)  INI_PARMS: opening model parameter file "data"
(PID.TID 0000.0001)  OPEN_COPY_DATA_FILE: opening file data
(PID.TID 0000.0001) // =======================================================
(PID.TID 0000.0001) // Parameter file "data"
(PID.TID 0000.0001) // =======================================================
(PID.TID 0000.0001) >### Data file with primary model parameters -----------------------------------
(PID.TID 0000.0001) >#
(PID.TID 0000.0001) >### Continuous equation parameters --------------------------------------------
(PID.TID 0000.0001) > &PARM01
(PID.TID 0000.0001) >## Reference temperatures and salinities for every vertical level.
(PID.TID 0000.0001) > tRef =  18.89, 18.89, 18.89, 18.89, 18.89, 18.87, 18.85, 18.82,
(PID.TID 0000.0001) >         18.80, 18.73, 18.63, 18.49, 18.28, 18.08, 17.86, 17.63,
(PID.TID 0000.0001) >         17.40, 17.18, 16.95, 16.73, 16.52, 16.31, 16.10, 15.89,
(PID.TID 0000.0001) >         15.69, 15.49, 15.28, 15.08, 14.88, 14.67, 14.47, 14.25,
(PID.TID 0000.0001) >         14.03, 13.80, 13.55, 13.29, 13.01, 12.73, 12.42, 12.11,
(PID.TID 0000.0001) >         11.78, 11.43, 11.07, 10.70, 10.31,  9.93,  9.53,  9.11,
(PID.TID 0000.0001) >          8.71,  8.29,  7.89,  7.51,  7.13,  6.78,  6.44,  6.11,
(PID.TID 0000.0001) >          5.81,  5.51,  5.23,  4.97,  4.73,  4.51,  4.30,  4.11,
(PID.TID 0000.0001) >          3.94,  3.78,  3.63,  3.50,  3.38,  3.25,  3.14,  3.04,
(PID.TID 0000.0001) >          2.94,  2.83,  2.74,  2.64,  2.54,  2.45,  2.36,  2.27,
(PID.TID 0000.0001) >          2.19,  2.10,  2.03,  1.95,  1.86,  1.78,  1.70,  1.63,
(PID.TID 0000.0001) >          1.55,  1.48,  1.41,  1.34,  1.27,  1.20,  1.13,  1.06,
(PID.TID 0000.0001) >          1.00,  0.96,  0.93,  0.91,
(PID.TID 0000.0001) > sRef =  34.84, 34.84, 34.84, 34.84, 34.84, 34.84, 34.85, 34.85,
(PID.TID 0000.0001) >         34.85, 34.86, 34.87, 34.88, 34.90, 34.91, 34.93, 34.95,
(PID.TID 0000.0001) >         34.96, 34.98, 34.99, 35.00, 35.01, 35.02, 35.03, 35.04,
(PID.TID 0000.0001) >         35.05, 35.06, 35.07, 35.07, 35.07, 35.07, 35.07, 35.07,
(PID.TID 0000.0001) >         35.07, 35.06, 35.05, 35.04, 35.03, 35.02, 35.01, 34.99,
(PID.TID 0000.0001) >         34.97, 34.95, 34.92, 34.90, 34.87, 34.84, 34.81, 34.78,
(PID.TID 0000.0001) >         34.75, 34.72, 34.69, 34.67, 34.65, 34.62, 34.61, 34.60,
(PID.TID 0000.0001) >         34.59, 34.59, 34.58, 34.59, 34.59, 34.60, 34.60, 34.61,
(PID.TID 0000.0001) >         34.62, 34.63, 34.64, 34.65, 34.66, 34.67, 34.67, 34.68,
(PID.TID 0000.0001) >         34.69, 34.70, 34.71, 34.71, 34.72, 34.72, 34.73, 34.73,
(PID.TID 0000.0001) >         34.73, 34.74, 34.74, 34.74, 34.74, 34.75, 34.74, 34.74,
(PID.TID 0000.0001) >         34.74, 34.74, 34.74, 34.74, 34.74, 34.74, 34.73, 34.73,
(PID.TID 0000.0001) >         34.73, 34.73, 34.73, 34.73,
(PID.TID 0000.0001) > rhonil        = 1029.,
(PID.TID 0000.0001) > rhoConstFresh = 1000.,
(PID.TID 0000.0001) > eosType = 'JMD95Z',
(PID.TID 0000.0001) >#
(PID.TID 0000.0001) >## Various prescriptions for viscosity and diffusivity.
(PID.TID 0000.0001) > viscAr     = 5.e-04,
(PID.TID 0000.0001) > viscA4Grid = 0.0,
(PID.TID 0000.0001) > diffKhT    = 0.E0,
(PID.TID 0000.0001) > diffKhS    = 0.E0,
(PID.TID 0000.0001) > diffK4T    = 0.E10,
(PID.TID 0000.0001) > diffK4S    = 0.E10,
(PID.TID 0000.0001) > diffKrT    = 1.0e-5,
(PID.TID 0000.0001) > diffKrS    = 1.0e-5,
(PID.TID 0000.0001) > bottomDragQuadratic = 0.002,
(PID.TID 0000.0001) > no_slip_sides     = .TRUE.,
(PID.TID 0000.0001) > no_slip_bottom    = .TRUE.,
(PID.TID 0000.0001) > implicitDiffusion = .TRUE.,
(PID.TID 0000.0001) > implicitViscosity = .TRUE.,
(PID.TID 0000.0001) ># horizontal momentum closure
(PID.TID 0000.0001) > viscC4Leith   = 2.0,
(PID.TID 0000.0001) > viscC4Leithd  = 2.0,
(PID.TID 0000.0001) > viscA4GridMax = 0.8,
(PID.TID 0000.0001) >#
(PID.TID 0000.0001) >## Parameters that control numerical methods like advection schemes and
(PID.TID 0000.0001) >#  treatment of the free-surface.
(PID.TID 0000.0001) > tempAdvScheme = 7,
(PID.TID 0000.0001) > saltAdvScheme = 7,
(PID.TID 0000.0001) > implicitFreeSurface     = .TRUE.,
(PID.TID 0000.0001) > staggerTimeStep         = .TRUE.,
(PID.TID 0000.0001) > exactConserv            = .TRUE.,
(PID.TID 0000.0001) > vectorInvariantMomentum = .TRUE.,
(PID.TID 0000.0001) > useAreaViscLength       = .TRUE.,
(PID.TID 0000.0001) > highOrderVorticity      = .TRUE.,
(PID.TID 0000.0001) > multiDimAdvection       = .TRUE.,
(PID.TID 0000.0001) >#
(PID.TID 0000.0001) >## These parameters seem to be associated with the external forcing.
(PID.TID 0000.0001) > convertFW2Salt = -1.,
(PID.TID 0000.0001) > temp_EvPrRn    =  0.,
(PID.TID 0000.0001) > useRealFreshWaterFlux = .FALSE.,
(PID.TID 0000.0001) > allowFreezing         = .FALSE.,
(PID.TID 0000.0001) >#
(PID.TID 0000.0001) >## Parameters associated with bathymetry specification.
(PID.TID 0000.0001) > hFacMin   = 0.2,
(PID.TID 0000.0001) > hFacMinDr = 5.,
(PID.TID 0000.0001) >#
(PID.TID 0000.0001) >## Parameters for reading, writing, and misc numerical details.
(PID.TID 0000.0001) > globalFiles     = .TRUE.,
(PID.TID 0000.0001) > useSingleCpuIO  = .TRUE.,
(PID.TID 0000.0001) > readBinaryPrec  = 32,
(PID.TID 0000.0001) > writeBinaryPrec = 32,
(PID.TID 0000.0001) > debuglevel      = 2,
(PID.TID 0000.0001) >#
(PID.TID 0000.0001) >## Unused parameters.
(PID.TID 0000.0001) ># gravity = 9.81,
(PID.TID 0000.0001) ># viscA4Grid = 2.0E-3,
(PID.TID 0000.0001) ># viscAhGrid = 2.5E-4,
(PID.TID 0000.0001) ># bottomDraglinear    = 1.E-3,
(PID.TID 0000.0001) ># Note: nonlinFreeSurf=1 with rStar=0 breaks the code.
(PID.TID 0000.0001) ># nonlinFreeSurf = 4,
(PID.TID 0000.0001) ># select_rStar   = 1,
(PID.TID 0000.0001) ># hFacInf   = 0.1,
(PID.TID 0000.0001) ># hFacSup   = 5.,
(PID.TID 0000.0001) ># implicSurfPress = 0.6,
(PID.TID 0000.0001) ># implicDiv2DFlow = 0.6,
(PID.TID 0000.0001) ># useSingleCpuInput = .TRUE.,
(PID.TID 0000.0001) ># set to eccov4, make sure minbathy=20m first
(PID.TID 0000.0001) ># debuglevel = -1,
(PID.TID 0000.0001) ># useJamartWetPoints = .TRUE.,
(PID.TID 0000.0001) ># writeBinaryPrec=64,
(PID.TID 0000.0001) > /
(PID.TID 0000.0001) >### Elliptic solver parameters ------------------------------------------------
(PID.TID 0000.0001) > &PARM02
(PID.TID 0000.0001) > cg2dMaxIters       = 1000,
(PID.TID 0000.0001) ># cg2dTargetResidual = 1.E-8,
(PID.TID 0000.0001) > cg2dTargetResWunit = 1e-18,
(PID.TID 0000.0001) >#
(PID.TID 0000.0001) >#cg2dMaxIters       = 100,
(PID.TID 0000.0001) >#cg2dTargetResidual = 1.E-5,
(PID.TID 0000.0001) > &
(PID.TID 0000.0001) >### Time stepping parameters --------------------------------------------------
(PID.TID 0000.0001) > &PARM03
(PID.TID 0000.0001) > deltaT      =    240.,
(PID.TID 0000.0001) > nIter0      =  0,
(PID.TID 0000.0001) > nTimeSteps  =  15,
(PID.TID 0000.0001) > pChkptFreq  = 864000.,
(PID.TID 0000.0001) > monitorFreq =   240.,
(PID.TID 0000.0001) > abEps       = 0.1,
(PID.TID 0000.0001) >## It is unclear what these specify.
(PID.TID 0000.0001) > pickupStrictlyMatch = .FALSE.,
(PID.TID 0000.0001) > forcing_In_AB       = .FALSE.,
(PID.TID 0000.0001) > momDissip_In_AB     = .FALSE.,
(PID.TID 0000.0001) > dumpInitAndLast     = .FALSE.,
(PID.TID 0000.0001) > /
(PID.TID 0000.0001) >### Gridding parameters -------------------------------------------------------
(PID.TID 0000.0001) > &PARM04
(PID.TID 0000.0001) > usingSphericalPolarGrid=.TRUE.,
(PID.TID 0000.0001) >## Specify the height of each vertical level.
(PID.TID 0000.0001) > delR =   5.00,   5.00,   5.00,   5.00,   5.00,   5.00,   5.00,   5.00,   5.00,
(PID.TID 0000.0001) >          5.00,   5.00,   5.00,   5.00,   5.00,   5.00,   5.01,   5.01,   5.02,
(PID.TID 0000.0001) >          5.04,   5.07,   5.12,   5.20,   5.31,   5.49,   5.72,   6.04,   6.45,
(PID.TID 0000.0001) >          6.97,   7.62,   8.42,   9.36,  10.46,  11.72,  13.13,  14.70,  16.40,
(PID.TID 0000.0001) >         18.24,  20.18,  22.21,  24.29,  26.43,  28.57,  30.71,  32.79,  34.82,
(PID.TID 0000.0001) >         36.76,  38.60,  40.30,  41.87,  43.28,  44.54,  45.64,  46.58,  47.38,
(PID.TID 0000.0001) >         48.03,  48.55,  48.96,  49.29,  49.53,  49.72,  49.90,  50.11,  50.41,
(PID.TID 0000.0001) >         50.92,  51.69,  52.87,  54.54,  56.79,  59.67,  63.16,  67.26,  71.83,
(PID.TID 0000.0001) >         76.83,  82.11,  87.61,  93.22,  98.91, 104.64, 110.38, 116.12, 121.87,
(PID.TID 0000.0001) >        127.63, 133.38, 139.12, 144.87, 150.63, 156.38, 162.12, 167.87, 173.63,
(PID.TID 0000.0001) >        179.38, 185.12, 190.87, 196.63, 202.38, 208.12, 213.87, 219.63, 225.38,
(PID.TID 0000.0001) >        231.12,
(PID.TID 0000.0001) > xgOrigin=-81.583335876464844,
(PID.TID 0000.0001) > dxSpacing=0.041666666666667,
(PID.TID 0000.0001) > ygOrigin=26.855293273925781,
(PID.TID 0000.0001) > delYFile = 'delYFile',
(PID.TID 0000.0001) > /
(PID.TID 0000.0001) ># -----------------------------------------------------------------------------
(PID.TID 0000.0001) >### Bathymetry files and initial condition files
(PID.TID 0000.0001) > &PARM05
(PID.TID 0000.0001) > bathyFile       = 'bathy.bin',
(PID.TID 0000.0001) > hydrogThetaFile = 'T0_1815x532x100.bin',
(PID.TID 0000.0001) > hydrogSaltFile  = 'S0_1815x532x100.bin',
(PID.TID 0000.0001) > uVelInitFile    = 'U0_1815x532x100.bin',
(PID.TID 0000.0001) > vVelInitFile    = 'V0_1815x532x100.bin',
(PID.TID 0000.0001) > /
(PID.TID 0000.0001) 
(PID.TID 0000.0001)  INI_PARMS ; starts to read PARM01
(PID.TID 0000.0001)  INI_PARMS ; read PARM01 : OK
(PID.TID 0000.0001)  INI_PARMS ; starts to read PARM02
(PID.TID 0000.0001)  INI_PARMS ; read PARM02 : OK
(PID.TID 0000.0001)  INI_PARMS ; starts to read PARM03
(PID.TID 0000.0001)  INI_PARMS ; read PARM03 : OK
(PID.TID 0000.0001)  INI_PARMS ; starts to read PARM04
(PID.TID 0000.0001)  INI_PARMS ; read PARM04 : OK
(PID.TID 0000.0001)  INI_PARMS ; starts to read PARM05
(PID.TID 0000.0001)  INI_PARMS ; read PARM05 : OK
(PID.TID 0000.0001)  INI_PARMS: finished reading file "data"
(PID.TID 0000.0001)  PACKAGES_BOOT: opening data.pkg
(PID.TID 0000.0001)  OPEN_COPY_DATA_FILE: opening file data.pkg
(PID.TID 0000.0001) // =======================================================
(PID.TID 0000.0001) // Parameter file "data.pkg"
(PID.TID 0000.0001) // =======================================================
(PID.TID 0000.0001) ># Packages
(PID.TID 0000.0001) > &PACKAGES
(PID.TID 0000.0001) > useCAL         = .TRUE.,
(PID.TID 0000.0001) > useEXF         = .TRUE.,
(PID.TID 0000.0001) > useKPP         = .TRUE.,
(PID.TID 0000.0001) > useDiagnostics = .TRUE.,
(PID.TID 0000.0001) > useOBCS        = .TRUE.,
(PID.TID 0000.0001) ># useProfiles=.TRUE.,
(PID.TID 0000.0001) > /
(PID.TID 0000.0001) 
(PID.TID 0000.0001)  PACKAGES_BOOT: finished reading data.pkg
(PID.TID 0000.0001)  PACKAGES_BOOT: On/Off package Summary
 --------  pkgs with a standard "usePKG" On/Off switch in "data.pkg":  --------
 pkg/obcs                 compiled   and   used ( useOBCS                  = T )
 pkg/kpp                  compiled   and   used ( useKPP                   = T )
 pkg/cal                  compiled   and   used ( useCAL                   = T )
 pkg/exf                  compiled   and   used ( useEXF                   = T )
 pkg/diagnostics          compiled   and   used ( useDiagnostics           = T )
 -------- pkgs without standard "usePKG" On/Off switch in "data.pkg":  --------
 pkg/generic_advdiff      compiled   and   used ( useGAD                   = T )
 pkg/mom_common           compiled   and   used ( momStepping              = T )
 pkg/mom_vecinv           compiled   and   used ( +vectorInvariantMomentum = T )
 pkg/monitor              compiled   and   used ( monitorFreq > 0.         = T )
 pkg/debug                compiled but not used ( debugMode                = F )
 pkg/exch2                compiled   and   used
 pkg/rw                   compiled   and   used
 pkg/mdsio                compiled   and   used
(PID.TID 0000.0001)  PACKAGES_BOOT: End of package Summary
(PID.TID 0000.0001) 
(PID.TID 0000.0001) CAL_READPARMS: opening data.cal
(PID.TID 0000.0001)  OPEN_COPY_DATA_FILE: opening file data.cal
(PID.TID 0000.0001) // =======================================================
(PID.TID 0000.0001) // Parameter file "data.cal"
(PID.TID 0000.0001) // =======================================================
(PID.TID 0000.0001) >#
(PID.TID 0000.0001) ># *******************
(PID.TID 0000.0001) ># Calendar Parameters
(PID.TID 0000.0001) ># *******************
(PID.TID 0000.0001) > &CAL_NML
(PID.TID 0000.0001) > TheCalendar='gregorian',
(PID.TID 0000.0001) > startDate_1=20080101,
(PID.TID 0000.0001) > startDate_2=000000,
(PID.TID 0000.0001) > calendarDumps = .TRUE.,
(PID.TID 0000.0001) > &
(PID.TID 0000.0001) 
(PID.TID 0000.0001) CAL_READPARMS: finished reading data.cal
(PID.TID 0000.0001) EXF_READPARMS: opening data.exf
(PID.TID 0000.0001)  OPEN_COPY_DATA_FILE: opening file data.exf
(PID.TID 0000.0001) // =======================================================
(PID.TID 0000.0001) // Parameter file "data.exf"
(PID.TID 0000.0001) // =======================================================
(PID.TID 0000.0001) ># *********************
(PID.TID 0000.0001) ># External Forcing Data
(PID.TID 0000.0001) ># *********************
(PID.TID 0000.0001) >#
(PID.TID 0000.0001) > &EXF_NML_01
(PID.TID 0000.0001) >#
(PID.TID 0000.0001) > useAtmWind        = .TRUE.,
(PID.TID 0000.0001) >#
(PID.TID 0000.0001) >#TO COMBINE WITH ALLOW_ZENITH_ANGLE:
(PID.TID 0000.0001) > exf_albedo        = 0.1,
(PID.TID 0000.0001) > useExfZenIncoming = .TRUE.,
(PID.TID 0000.0001) > select_ZenAlbedo  = 1,
(PID.TID 0000.0001) >#
(PID.TID 0000.0001) > ocean_emissivity  = 0.97,
(PID.TID 0000.0001) > ice_emissivity    = 0.95,
(PID.TID 0000.0001) > snow_emissivity   = 0.95,
(PID.TID 0000.0001) > exf_iprec         = 32,
(PID.TID 0000.0001) > exf_iprec_obcs    = 32,
(PID.TID 0000.0001) > exf_yftype        = 'RL',
(PID.TID 0000.0001) > useExfYearlyFields= .TRUE.,
(PID.TID 0000.0001) > useExfCheckRange  = .FALSE.,
(PID.TID 0000.0001) > useRelativeWind   = .TRUE.,
(PID.TID 0000.0001) > &
(PID.TID 0000.0001) >#
(PID.TID 0000.0001) > &EXF_NML_02
(PID.TID 0000.0001) > apressurefile     = 'era5/ERA5_pres',
(PID.TID 0000.0001) > atempfile         = 'era5/ERA5_tmp2m_degC',
(PID.TID 0000.0001) > aqhfile           = 'era5/ERA5_spfh2m',
(PID.TID 0000.0001) > precipfile        = 'era5/ERA5_rain',
(PID.TID 0000.0001) > uwindfile         = 'era5/ERA5_u10m',
(PID.TID 0000.0001) > vwindfile         = 'era5/ERA5_v10m',
(PID.TID 0000.0001) > swdownfile        = 'era5/ERA5_dsw',
(PID.TID 0000.0001) > lwdownfile        = 'era5/ERA5_dlw',
(PID.TID 0000.0001) > tidePotfile       = 'tide_IAU_EARTH',
(PID.TID 0000.0001) > runofffile        = 'runoff1p2472-360x180x12.bin',
(PID.TID 0000.0001) >#
(PID.TID 0000.0001) > apressurestartdate1 = 19920101,
(PID.TID 0000.0001) > apressurestartdate2 = 000000,
(PID.TID 0000.0001) > apressureperiod   = 3600.0,
(PID.TID 0000.0001) >#
(PID.TID 0000.0001) > atempstartdate1   = 19920101,
(PID.TID 0000.0001) > atempstartdate2   = 000000,
(PID.TID 0000.0001) > atempperiod       = 3600.0,
(PID.TID 0000.0001) >#
(PID.TID 0000.0001) > aqhstartdate1     = 19920101,
(PID.TID 0000.0001) > aqhstartdate2     = 000000,
(PID.TID 0000.0001) > aqhperiod         = 3600.0,
(PID.TID 0000.0001) >#
(PID.TID 0000.0001) > precipstartdate1  = 19920101,
(PID.TID 0000.0001) > precipstartdate2  = 003000,
(PID.TID 0000.0001) > precipperiod      = 3600.0,
(PID.TID 0000.0001) >#
(PID.TID 0000.0001) > uwindstartdate1   = 19920101,
(PID.TID 0000.0001) > uwindstartdate2   = 000000,
(PID.TID 0000.0001) > uwindperiod       = 3600.0,
(PID.TID 0000.0001) >#
(PID.TID 0000.0001) > vwindstartdate1   = 19920101,
(PID.TID 0000.0001) > vwindstartdate2   = 000000,
(PID.TID 0000.0001) > vwindperiod       = 3600.0,
(PID.TID 0000.0001) >#
(PID.TID 0000.0001) > swdownstartdate1  = 19920101,
(PID.TID 0000.0001) > swdownstartdate2  = 003000,
(PID.TID 0000.0001) > swdownperiod      = 3600.0,
(PID.TID 0000.0001) >#
(PID.TID 0000.0001) > lwdownstartdate1  = 19920101,
(PID.TID 0000.0001) > lwdownstartdate2  = 003000,
(PID.TID 0000.0001) > lwdownperiod      = 3600.0,
(PID.TID 0000.0001) > tidePotstartdate1  = 19790101,
(PID.TID 0000.0001) > tidePotstartdate2  = 000000,
(PID.TID 0000.0001) > tidePotperiod      = 3600.0,
(PID.TID 0000.0001) ># "*period=-12" specifies monthly-mean forcing
(PID.TID 0000.0001) > runoffperiod      = -12,
(PID.TID 0000.0001) > &
(PID.TID 0000.0001) >#
(PID.TID 0000.0001) > &EXF_NML_03
(PID.TID 0000.0001) > exf_offset_atemp   = 273.15,
(PID.TID 0000.0001) > exf_inscal_swdown  = -1.0,
(PID.TID 0000.0001) > exf_inscal_lwdown  = -1.0,
(PID.TID 0000.0001) ># 1/365/24/3600 yr/s conversion, runoff [m/yr --> m/s]
(PID.TID 0000.0001) > exf_inscal_runoff = 3.1710e-08,
(PID.TID 0000.0001) > &
(PID.TID 0000.0001) >#
(PID.TID 0000.0001) > &EXF_NML_04
(PID.TID 0000.0001) ># runoff_interpMethod = 0,
(PID.TID 0000.0001) >#
(PID.TID 0000.0001) > apressure_lon0    =   0.0000000D0,
(PID.TID 0000.0001) > apressure_lon_inc =   0.2812500D0,
(PID.TID 0000.0001) > apressure_lat0    = -89.7848850D0,
(PID.TID 0000.0001) > apressure_lat_inc = 0.2786766D0,0.2803199D0,0.2806917D0,0.2808328D0,0.2809011D0,0.2809392D0,0.2809626D0,0.2809781D0,
(PID.TID 0000.0001) >                     0.2809888D0,0.2809965D0,0.2810023D0,0.2810067D0,0.2810102D0,0.2810129D0,0.2810151D0,
(PID.TID 0000.0001) >                     33*0.2810258D0,543*0.2810302D0,33*0.2810258D0,
(PID.TID 0000.0001) >                     0.2810151D0,0.2810129D0,0.2810102D0,0.2810067D0,0.2810023D0,0.2809965D0,0.2809888D0,0.2809781D0,
(PID.TID 0000.0001) >                     0.2809626D0,0.2809392D0,0.2809011D0,0.2808328D0,0.2806917D0,0.2803199D0,0.2786766D0,
(PID.TID 0000.0001) > apressure_nlon    = 1280,
(PID.TID 0000.0001) > apressure_nlat    = 640,
(PID.TID 0000.0001) >#
(PID.TID 0000.0001) > atemp_lon0        =   0.0000000D0,
(PID.TID 0000.0001) > atemp_lon_inc     =   0.2812500D0,
(PID.TID 0000.0001) > atemp_lat0        = -89.7848850D0,
(PID.TID 0000.0001) > atemp_lat_inc     = 0.2786766D0,0.2803199D0,0.2806917D0,0.2808328D0,0.2809011D0,0.2809392D0,0.2809626D0,0.2809781D0,
(PID.TID 0000.0001) >                     0.2809888D0,0.2809965D0,0.2810023D0,0.2810067D0,0.2810102D0,0.2810129D0,0.2810151D0,
(PID.TID 0000.0001) >                     33*0.2810258D0,543*0.2810302D0,33*0.2810258D0,
(PID.TID 0000.0001) >                     0.2810151D0,0.2810129D0,0.2810102D0,0.2810067D0,0.2810023D0,0.2809965D0,0.2809888D0,0.2809781D0,
(PID.TID 0000.0001) >                     0.2809626D0,0.2809392D0,0.2809011D0,0.2808328D0,0.2806917D0,0.2803199D0,0.2786766D0,
(PID.TID 0000.0001) > atemp_nlon        = 1280,
(PID.TID 0000.0001) > atemp_nlat        = 640,
(PID.TID 0000.0001) >#
(PID.TID 0000.0001) > aqh_lon0        =   0.0000000D0,
(PID.TID 0000.0001) > aqh_lon_inc     =   0.2812500D0,
(PID.TID 0000.0001) > aqh_lat0        = -89.7848850D0,
(PID.TID 0000.0001) > aqh_lat_inc     = 0.2786766D0,0.2803199D0,0.2806917D0,0.2808328D0,0.2809011D0,0.2809392D0,0.2809626D0,0.2809781D0,
(PID.TID 0000.0001) >                     0.2809888D0,0.2809965D0,0.2810023D0,0.2810067D0,0.2810102D0,0.2810129D0,0.2810151D0,
(PID.TID 0000.0001) >                     33*0.2810258D0,543*0.2810302D0,33*0.2810258D0,
(PID.TID 0000.0001) >                     0.2810151D0,0.2810129D0,0.2810102D0,0.2810067D0,0.2810023D0,0.2809965D0,0.2809888D0,0.2809781D0,
(PID.TID 0000.0001) >                     0.2809626D0,0.2809392D0,0.2809011D0,0.2808328D0,0.2806917D0,0.2803199D0,0.2786766D0,
(PID.TID 0000.0001) > aqh_nlon        = 1280,
(PID.TID 0000.0001) > aqh_nlat        = 640,
(PID.TID 0000.0001) >#
(PID.TID 0000.0001) > precip_lon0        =   0.0000000D0,
(PID.TID 0000.0001) > precip_lon_inc     =   0.2812500D0,
(PID.TID 0000.0001) > precip_lat0        = -89.7848850D0,
(PID.TID 0000.0001) > precip_lat_inc     = 0.2786766D0,0.2803199D0,0.2806917D0,0.2808328D0,0.2809011D0,0.2809392D0,0.2809626D0,0.2809781D0,
(PID.TID 0000.0001) >                     0.2809888D0,0.2809965D0,0.2810023D0,0.2810067D0,0.2810102D0,0.2810129D0,0.2810151D0,
(PID.TID 0000.0001) >                     33*0.2810258D0,543*0.2810302D0,33*0.2810258D0,
(PID.TID 0000.0001) >                     0.2810151D0,0.2810129D0,0.2810102D0,0.2810067D0,0.2810023D0,0.2809965D0,0.2809888D0,0.2809781D0,
(PID.TID 0000.0001) >                     0.2809626D0,0.2809392D0,0.2809011D0,0.2808328D0,0.2806917D0,0.2803199D0,0.2786766D0,
(PID.TID 0000.0001) > precip_nlon        = 1280,
(PID.TID 0000.0001) > precip_nlat        = 640,
(PID.TID 0000.0001) >#
(PID.TID 0000.0001) > uwind_lon0        =   0.0000000D0,
(PID.TID 0000.0001) > uwind_lon_inc     =   0.2812500D0,
(PID.TID 0000.0001) > uwind_lat0        = -89.7848850D0,
(PID.TID 0000.0001) > uwind_lat_inc     = 0.2786766D0,0.2803199D0,0.2806917D0,0.2808328D0,0.2809011D0,0.2809392D0,0.2809626D0,0.2809781D0,
(PID.TID 0000.0001) >                     0.2809888D0,0.2809965D0,0.2810023D0,0.2810067D0,0.2810102D0,0.2810129D0,0.2810151D0,
(PID.TID 0000.0001) >                     33*0.2810258D0,543*0.2810302D0,33*0.2810258D0,
(PID.TID 0000.0001) >                     0.2810151D0,0.2810129D0,0.2810102D0,0.2810067D0,0.2810023D0,0.2809965D0,0.2809888D0,0.2809781D0,
(PID.TID 0000.0001) >                     0.2809626D0,0.2809392D0,0.2809011D0,0.2808328D0,0.2806917D0,0.2803199D0,0.2786766D0,
(PID.TID 0000.0001) > uwind_nlon        = 1280,
(PID.TID 0000.0001) > uwind_nlat        = 640,
(PID.TID 0000.0001) >#
(PID.TID 0000.0001) > vwind_lon0        =   0.0000000D0,
(PID.TID 0000.0001) > vwind_lon_inc     =   0.2812500D0,
(PID.TID 0000.0001) > vwind_lat0        = -89.7848850D0,
(PID.TID 0000.0001) > vwind_lat_inc     = 0.2786766D0,0.2803199D0,0.2806917D0,0.2808328D0,0.2809011D0,0.2809392D0,0.2809626D0,0.2809781D0,
(PID.TID 0000.0001) >                     0.2809888D0,0.2809965D0,0.2810023D0,0.2810067D0,0.2810102D0,0.2810129D0,0.2810151D0,
(PID.TID 0000.0001) >                     33*0.2810258D0,543*0.2810302D0,33*0.2810258D0,
(PID.TID 0000.0001) >                     0.2810151D0,0.2810129D0,0.2810102D0,0.2810067D0,0.2810023D0,0.2809965D0,0.2809888D0,0.2809781D0,
(PID.TID 0000.0001) >                     0.2809626D0,0.2809392D0,0.2809011D0,0.2808328D0,0.2806917D0,0.2803199D0,0.2786766D0,
(PID.TID 0000.0001) > vwind_nlon        = 1280,
(PID.TID 0000.0001) > vwind_nlat        = 640,
(PID.TID 0000.0001) >#
(PID.TID 0000.0001) > swdown_lon0        =   0.0000000D0,
(PID.TID 0000.0001) > swdown_lon_inc     =   0.2812500D0,
(PID.TID 0000.0001) > swdown_lat0        = -89.7848850D0,
(PID.TID 0000.0001) > swdown_lat_inc     = 0.2786766D0,0.2803199D0,0.2806917D0,0.2808328D0,0.2809011D0,0.2809392D0,0.2809626D0,0.2809781D0,
(PID.TID 0000.0001) >                     0.2809888D0,0.2809965D0,0.2810023D0,0.2810067D0,0.2810102D0,0.2810129D0,0.2810151D0,
(PID.TID 0000.0001) >                     33*0.2810258D0,543*0.2810302D0,33*0.2810258D0,
(PID.TID 0000.0001) >                     0.2810151D0,0.2810129D0,0.2810102D0,0.2810067D0,0.2810023D0,0.2809965D0,0.2809888D0,0.2809781D0,
(PID.TID 0000.0001) >                     0.2809626D0,0.2809392D0,0.2809011D0,0.2808328D0,0.2806917D0,0.2803199D0,0.2786766D0,
(PID.TID 0000.0001) > swdown_nlon        = 1280,
(PID.TID 0000.0001) > swdown_nlat        = 640,
(PID.TID 0000.0001) >#
(PID.TID 0000.0001) > lwdown_lon0        =   0.0000000D0,
(PID.TID 0000.0001) > lwdown_lon_inc     =   0.2812500D0,
(PID.TID 0000.0001) > lwdown_lat0        = -89.7848850D0,
(PID.TID 0000.0001) > lwdown_lat_inc     = 0.2786766D0,0.2803199D0,0.2806917D0,0.2808328D0,0.2809011D0,0.2809392D0,0.2809626D0,0.2809781D0,
(PID.TID 0000.0001) >                     0.2809888D0,0.2809965D0,0.2810023D0,0.2810067D0,0.2810102D0,0.2810129D0,0.2810151D0,
(PID.TID 0000.0001) >                     33*0.2810258D0,543*0.2810302D0,33*0.2810258D0,
(PID.TID 0000.0001) >                     0.2810151D0,0.2810129D0,0.2810102D0,0.2810067D0,0.2810023D0,0.2809965D0,0.2809888D0,0.2809781D0,
(PID.TID 0000.0001) >                     0.2809626D0,0.2809392D0,0.2809011D0,0.2808328D0,0.2806917D0,0.2803199D0,0.2786766D0,
(PID.TID 0000.0001) > lwdown_nlon        = 1280,
(PID.TID 0000.0001) > lwdown_nlat        = 640,
(PID.TID 0000.0001) >#
(PID.TID 0000.0001) > tidePot_lon0       = 0.0D0,
(PID.TID 0000.0001) > tidePot_lon_inc    = 1.0D0,
(PID.TID 0000.0001) > tidePot_lat0       = -90.0D0,
(PID.TID 0000.0001) > tidePot_lat_inc    = 180*1.0D0,
(PID.TID 0000.0001) > tidePot_nlon       = 360,
(PID.TID 0000.0001) > tidePot_nlat       = 181,
(PID.TID 0000.0001) >#
(PID.TID 0000.0001) > runoff_lon0       = 0.50D0,
(PID.TID 0000.0001) > runoff_lon_inc    = 1.0D0,
(PID.TID 0000.0001) > runoff_lat0       = -89.5D0,
(PID.TID 0000.0001) > runoff_lat_inc    = 179*1.,
(PID.TID 0000.0001) > runoff_nlon       = 360,
(PID.TID 0000.0001) > runoff_nlat       = 180,
(PID.TID 0000.0001) > &
(PID.TID 0000.0001) >#
(PID.TID 0000.0001) > &EXF_NML_OBCS
(PID.TID 0000.0001) >  obcsSstartdate1   = 20071215,
(PID.TID 0000.0001) >  obcsSstartdate2   = 060000,
(PID.TID 0000.0001) >  obcsSperiod       = 2629800.0,
(PID.TID 0000.0001) >#
(PID.TID 0000.0001) >  obcsNstartdate1   = 20071215,
(PID.TID 0000.0001) >  obcsNstartdate2   = 060000,
(PID.TID 0000.0001) >  obcsNperiod       = 2629800.0,
(PID.TID 0000.0001) > &
(PID.TID 0000.0001) 
(PID.TID 0000.0001) EXF_READPARMS: reading EXF_NML_01
(PID.TID 0000.0001) EXF_READPARMS: reading EXF_NML_02
(PID.TID 0000.0001) EXF_READPARMS: reading EXF_NML_03
(PID.TID 0000.0001) EXF_READPARMS: reading EXF_NML_04
(PID.TID 0000.0001) EXF_READPARMS: reading EXF_NML_OBCS
(PID.TID 0000.0001) EXF_READPARMS: finished reading data.exf
(PID.TID 0000.0001)  OBCS_READPARMS: opening data.obcs
(PID.TID 0000.0001)  OPEN_COPY_DATA_FILE: opening file data.obcs
(PID.TID 0000.0001) // =======================================================
(PID.TID 0000.0001) // Parameter file "data.obcs"
(PID.TID 0000.0001) // =======================================================
(PID.TID 0000.0001) ># ***************
(PID.TID 0000.0001) ># Open boundaries
(PID.TID 0000.0001) ># ***************
(PID.TID 0000.0001) > &OBCS_PARM01
(PID.TID 0000.0001) >OB_Jnorth = 1815*531,
(PID.TID 0000.0001) >OB_Jsouth = 1815*2,
(PID.TID 0000.0001) >OB_Ieast = 532*1813,
(PID.TID 0000.0001) >#
(PID.TID 0000.0001) > useOBCSprescribe=.TRUE.,
(PID.TID 0000.0001) ># useOBCSsponge=.true.,
(PID.TID 0000.0001) > OBCS_monSelect = 3,
(PID.TID 0000.0001) ># >0: use 1rst O. upwind adv-scheme @ OB (=1: only if outflow)
(PID.TID 0000.0001) > OBCS_u1_adv_T = 1,
(PID.TID 0000.0001) > OBCS_u1_adv_S = 1,
(PID.TID 0000.0001) >#
(PID.TID 0000.0001) > OBSsFile='OBSs_1815x100x12.bin',
(PID.TID 0000.0001) > OBStFile='OBSt_1815x100x12.bin',
(PID.TID 0000.0001) > OBSuFile='OBSu_1815x100x12.bin',
(PID.TID 0000.0001) > OBSvFile='OBSv_1815x100x12.bin',
(PID.TID 0000.0001) >#
(PID.TID 0000.0001) > OBNsFile='OBNs_1815x100x12.bin',
(PID.TID 0000.0001) > OBNtFile='OBNt_1815x100x12.bin',
(PID.TID 0000.0001) > OBNuFile='OBNu_1815x100x12.bin',
(PID.TID 0000.0001) > OBNvFile='OBNv_1815x100x12.bin',
(PID.TID 0000.0001) >#
(PID.TID 0000.0001) > OBEsFile='OBEs_532x100x12.bin',
(PID.TID 0000.0001) > OBEtFile='OBEt_532x100x12.bin',
(PID.TID 0000.0001) > OBEuFile='OBEu_532x100x12.bin',
(PID.TID 0000.0001) > OBEvFile='OBEv_532x100x12.bin',
(PID.TID 0000.0001) ># Balancing
(PID.TID 0000.0001) > useOBCSbalance = .TRUE.,
(PID.TID 0000.0001) > OBCS_balanceFacN = -1,
(PID.TID 0000.0001) > OBCS_balanceFacS = -1,
(PID.TID 0000.0001) > OBCS_balanceFacE = -1,
(PID.TID 0000.0001) >## *****************************************
(PID.TID 0000.0001) >## Tidal BC parameters
(PID.TID 0000.0001) >## *****************************************
(PID.TID 0000.0001) > useOBCStides = .TRUE.,
(PID.TID 0000.0001) >##components   = M2       S2     N2       K2       K1      O1       P1       Q1       Mf         Mm
(PID.TID 0000.0001) >##periods (hr) = 12.4206  12     12.6583  11.9672  23.9345 25.8193  24.0659  26.8684  327.8599   661.31
(PID.TID 0000.0001) >##period(sec)  = 44714.165 43200.001 45570.054 43082.05 86164.077 92949.636 86637.2 96726.086 1180295.5 2380715.9
(PID.TID 0000.0001) >##components      m2        s2        n2        k2        k1        o1        p1        q1        mf        mm        m4        ms4       mn4
(PID.TID 0000.0001) >##period (hr): 12.420601 12.000000 12.658348 11.967236 23.934466 25.819343 24.065889 26.868357 327.859874 661.309962 6.210303 6.103339 6.269178
(PID.TID 0000.0001) >##period (s):  44714.165192 43200.001287 45570.053512 43082.050319 86164.077005 92949.635701 86637.199772 96726.085703 1180295.545550 2380715.863587 22357.090551 21972.021930 22569.042448
(PID.TID 0000.0001) >##components      m2        s2        n2        k2        k1        o1        p1        q1        m4        ms4         mn4        mm           mf
(PID.TID 0000.0001) > tidalPeriod  = 44714.165 43200.001 45570.054 43082.050 86164.077 92949.636 86637.200 96726.086 22357.091 21972.022 22569.042 2380715.864 1180295.546,
(PID.TID 0000.0001) > OBSamFile='OBSvam_1815x13.bin',
(PID.TID 0000.0001) > OBNamFile='OBNvam_1815x13.bin',
(PID.TID 0000.0001) > OBEamFile='OBEuam_532x13.bin',
(PID.TID 0000.0001) > OBSphFile='OBSvph_1815x13.bin',
(PID.TID 0000.0001) > OBNphFile='OBNvph_1815x13.bin',
(PID.TID 0000.0001) > OBEphFile='OBEuph_532x13.bin',
(PID.TID 0000.0001) > &
(PID.TID 0000.0001) ># *****************************************
(PID.TID 0000.0001) ># Sponge Layer Parameters.
(PID.TID 0000.0001) ># *****************************************
(PID.TID 0000.0001) > &OBCS_PARM03
(PID.TID 0000.0001) ># Urelaxobcsinner=2629800.E0,
(PID.TID 0000.0001) ># Urelaxobcsbound=43200.E0,
(PID.TID 0000.0001) >#
(PID.TID 0000.0001) ># Vrelaxobcsinner=2629800.E0,
(PID.TID 0000.0001) ># Vrelaxobcsbound=43200.E0,
(PID.TID 0000.0001) >#
(PID.TID 0000.0001) ># spongeThickness=16,
(PID.TID 0000.0001) > &
(PID.TID 0000.0001) 
(PID.TID 0000.0001)  OBCS_READPARMS: finished reading data.obcs
(PID.TID 0000.0001)  OB_indexUnset = /* unset OB index value (i.e. no OB) */
(PID.TID 0000.0001)                       0
(PID.TID 0000.0001)     ;
(PID.TID 0000.0001)  Northern OB global indices : OB_Jnorth =
(PID.TID 0000.0001)  1815 @      531                            /* I =  1:*** */
(PID.TID 0000.0001)  Southern OB global indices : OB_Jsouth =
(PID.TID 0000.0001)  1815 @        2                            /* I =  1:*** */
(PID.TID 0000.0001)  Eastern  OB global indices : OB_Ieast =
(PID.TID 0000.0001)   532 @     1813                            /* J =  1:532 */
(PID.TID 0000.0001)  Western  OB global indices : OB_Iwest =
(PID.TID 0000.0001)   532 @        0                            /* J =  1:532 */
(PID.TID 0000.0001) 
(PID.TID 0000.0001)  KPP_READPARMS: opening data.kpp
(PID.TID 0000.0001)  OPEN_COPY_DATA_FILE: opening file data.kpp
(PID.TID 0000.0001) // =======================================================
(PID.TID 0000.0001) // Parameter file "data.kpp"
(PID.TID 0000.0001) // =======================================================
(PID.TID 0000.0001) ># KPP parameters
(PID.TID 0000.0001) > &KPP_PARM01
(PID.TID 0000.0001) >### KPPmixingMaps   = .FALSE.,
(PID.TID 0000.0001) >### KPPwriteState   = .FALSE.,
(PID.TID 0000.0001) >### kpp_dumpFreq    = 0.,
(PID.TID 0000.0001) >### kpp_tavefreq    = 0.,
(PID.TID 0000.0001) >### Ricr            = 0.3559,
(PID.TID 0000.0001) >### Riinfty         = 0.6998,
(PID.TID 0000.0001) > &
(PID.TID 0000.0001) 
(PID.TID 0000.0001)  KPP_READPARMS ; starts to read KPP_PARM01
(PID.TID 0000.0001)  KPP_READPARMS ; read KPP_PARM01 : OK
(PID.TID 0000.0001)  KPP_READPARMS: finished reading data.kpp
(PID.TID 0000.0001)  DIAGNOSTICS_READPARMS: opening data.diagnostics
(PID.TID 0000.0001)  OPEN_COPY_DATA_FILE: opening file data.diagnostics
(PID.TID 0000.0001) // =======================================================
(PID.TID 0000.0001) // Parameter file "data.diagnostics"
(PID.TID 0000.0001) // =======================================================
(PID.TID 0000.0001) ># Diagnostic Package Choices
(PID.TID 0000.0001) >#-----------------
(PID.TID 0000.0001) ># for each output-stream:
(PID.TID 0000.0001) >#  filename(n) : prefix of the output file name (only 8.c long) for outp.stream n
(PID.TID 0000.0001) >#  frequency(n):< 0 : write snap-shot output every multiple of |frequency| (iter)
(PID.TID 0000.0001) >#               > 0 : write time-average output every multiple of frequency (iter)
(PID.TID 0000.0001) >#  levels(:,n) : list of levels to write to file (Notes: declared as REAL)
(PID.TID 0000.0001) >#                 when this entry is missing, select all common levels of this list
(PID.TID 0000.0001) >#  fields(:,n) : list of diagnostics fields (8.c) (see "available_diagnostics" file
(PID.TID 0000.0001) >#                 for the list of all available diag. in this particular config)
(PID.TID 0000.0001) >#--------------------------------------------------------------------
(PID.TID 0000.0001) >#
(PID.TID 0000.0001) > &diagnostics_list
(PID.TID 0000.0001) >#
(PID.TID 0000.0001) >   dumpatlast = .TRUE.,
(PID.TID 0000.0001) >#
(PID.TID 0000.0001) >#---
(PID.TID 0000.0001) >  frequency(1) = 3600.0,
(PID.TID 0000.0001) >   fields(1:5,1) = 'ETAN', 'oceTAUX', 'oceTAUY', 'EXFuwind', 'EXFvwind',
(PID.TID 0000.0001) >   filename(1) = 'diags/surface',
(PID.TID 0000.0001) >#---
(PID.TID 0000.0001) >  frequency(2) = 2592000.0,
(PID.TID 0000.0001) >   fields(1:9,2)='THETA','SALT','UVEL','VVEL','WVEL','UVELSQ','VVELSQ','WTHMASS','WSLTMASS',
(PID.TID 0000.0001) >   filename(2) = 'diags/interior',
(PID.TID 0000.0001) >#   levels(1:55,2) =  1., 2., 3., 4., 5., 6., 7., 8., 9.,10.,11.,13.,15.,
(PID.TID 0000.0001) >#                     17.,19.,21.,23.,25.,27.,29.,31.,33.,35.,37.,39.,41.,43.,45.,
(PID.TID 0000.0001) >#                     47.,49.,51.,53.,55.,57.,59.,61.,63.,65.,67.,69.,71.,73.,75.,
(PID.TID 0000.0001) >#                     77.,79.,81.,83.,85.,87.,89.,91.,93.,95.,97.,99.,
(PID.TID 0000.0001) > /
(PID.TID 0000.0001) >#
(PID.TID 0000.0001) >#
(PID.TID 0000.0001) ># Parameter for Diagnostics of per level statistics:
(PID.TID 0000.0001) >#-----------------
(PID.TID 0000.0001) ># for each output-stream:
(PID.TID 0000.0001) >#  stat_fname(n) : prefix of the output file name (only 8.c long) for outp.stream n
(PID.TID 0000.0001) >#  stat_freq(n):< 0 : write snap-shot output every |stat_freq| seconds
(PID.TID 0000.0001) >#               > 0 : write time-average output every stat_freq seconds
(PID.TID 0000.0001) >#  stat_phase(n)    : write at time = stat_phase + multiple of |stat_freq|
(PID.TID 0000.0001) >#  stat_region(:,n) : list of "regions" (default: 1 region only=global)
(PID.TID 0000.0001) >#  stat_fields(:,n) : list of diagnostics fields (8.c) (see "available_diagnostics.log"
(PID.TID 0000.0001) >#                 file for the list of all available diag. in this particular config)
(PID.TID 0000.0001) >#-----------------
(PID.TID 0000.0001) > &DIAG_STATIS_PARMS
(PID.TID 0000.0001) ># diagSt_regMaskFile='basin_masks_eccollc_90x50.bin',
(PID.TID 0000.0001) ># nSetRegMskFile=1,
(PID.TID 0000.0001) ># set_regMask(1)= 1,  1,  1,  1,  1,  1,  1,  1,  1,
(PID.TID 0000.0001) >#                 1,  1,  1,  1,  1,  1,  1,  1
(PID.TID 0000.0001) ># val_regMask(1)= 1., 2., 3., 4., 5., 6., 7., 8., 9.,
(PID.TID 0000.0001) >#                10.,11.,12.,13.,14.,15.,16.,17.
(PID.TID 0000.0001) >##---
(PID.TID 0000.0001) ># stat_fields(1,1)= 'ETAN    ','ETANSQ  ','DETADT2 ',
(PID.TID 0000.0001) >#                   'UVEL    ','VVEL    ','WVEL    ',
(PID.TID 0000.0001) >#                   'THETA   ','SALT    ',
(PID.TID 0000.0001) >#    stat_fname(1)= 'dynStDiag',
(PID.TID 0000.0001) >#     stat_freq(1)= 3153600.,
(PID.TID 0000.0001) ># stat_region(1,1)=  1, 2, 3, 4, 5, 6, 7, 8, 9,
(PID.TID 0000.0001) >#                   10,11,12,13,14,15,16,17
(PID.TID 0000.0001) >##---
(PID.TID 0000.0001) ># stat_fields(1,2)= 'oceTAUX ','oceTAUY ',
(PID.TID 0000.0001) >#                   'surForcT','surForcS','TFLUX   ','SFLUX   ',
(PID.TID 0000.0001) >#                   'oceQnet ','oceSflux','oceFWflx',
(PID.TID 0000.0001) >#    stat_fname(2)= 'surfStDiag',
(PID.TID 0000.0001) >#     stat_freq(2)= 3153600.,
(PID.TID 0000.0001) ># stat_region(1,2)=  1, 2, 3, 4, 5, 6, 7, 8, 9,
(PID.TID 0000.0001) >#                   10,11,12,13,14,15,16,17
(PID.TID 0000.0001) > /
(PID.TID 0000.0001) 
(PID.TID 0000.0001) S/R DIAGNOSTICS_READPARMS, read namelist "diagnostics_list": start
(PID.TID 0000.0001) S/R DIAGNOSTICS_READPARMS, read namelist "diagnostics_list": OK
(PID.TID 0000.0001) S/R DIAGNOSTICS_READPARMS, read namelist "DIAG_STATIS_PARMS": start
(PID.TID 0000.0001) S/R DIAGNOSTICS_READPARMS, read namelist "DIAG_STATIS_PARMS": OK
(PID.TID 0000.0001)  DIAGNOSTICS_READPARMS: global parameter summary:
(PID.TID 0000.0001)  dumpAtLast = /* always write time-ave diags at the end */
(PID.TID 0000.0001)                   T
(PID.TID 0000.0001)     ;
(PID.TID 0000.0001)  diag_mnc =   /* write NetCDF output files */
(PID.TID 0000.0001)                   F
(PID.TID 0000.0001)     ;
(PID.TID 0000.0001)  useMissingValue = /* put MissingValue where mask = 0 */
(PID.TID 0000.0001)                   F
(PID.TID 0000.0001)     ;
(PID.TID 0000.0001)  diagCG_maxIters = /* max number of iters in diag_cg2d */
(PID.TID 0000.0001)                    1000
(PID.TID 0000.0001)     ;
(PID.TID 0000.0001)  diagCG_resTarget = /* residual target for diag_cg2d */
(PID.TID 0000.0001)                 1.000000000000000E-07
(PID.TID 0000.0001)     ;
(PID.TID 0000.0001)  diagCG_pcOffDFac = /* preconditioner off-diagonal factor */
(PID.TID 0000.0001)                 9.611687812379854E-01
(PID.TID 0000.0001)     ;
(PID.TID 0000.0001) -----------------------------------------------------
(PID.TID 0000.0001)  DIAGNOSTICS_READPARMS: active diagnostics summary:
(PID.TID 0000.0001) -----------------------------------------------------
(PID.TID 0000.0001) Creating Output Stream: diags/surface
(PID.TID 0000.0001) Output Frequency:       3600.000000 ; Phase:           0.000000
(PID.TID 0000.0001)  Averaging Freq.:       3600.000000 , Phase:           0.000000 , Cycle:   1
(PID.TID 0000.0001)  missing value: -9.990000000000E+02
(PID.TID 0000.0001)  Levels:    will be set later
(PID.TID 0000.0001)  Fields:    ETAN     oceTAUX  oceTAUY  EXFuwind EXFvwind
(PID.TID 0000.0001) Creating Output Stream: diags/interior
(PID.TID 0000.0001) Output Frequency:    2592000.000000 ; Phase:           0.000000
(PID.TID 0000.0001)  Averaging Freq.:    2592000.000000 , Phase:           0.000000 , Cycle:   1
(PID.TID 0000.0001)  missing value: -9.990000000000E+02
(PID.TID 0000.0001)  Levels:    will be set later
(PID.TID 0000.0001)  Fields:    THETA    SALT     UVEL     VVEL     WVEL     UVELSQ   VVELSQ   WTHMASS  WSLTMASS
(PID.TID 0000.0001) -----------------------------------------------------
(PID.TID 0000.0001)  DIAGNOSTICS_READPARMS: statistics diags. summary:
(PID.TID 0000.0001) -----------------------------------------------------
(PID.TID 0000.0001) 
(PID.TID 0000.0001) SET_PARMS: done
(PID.TID 0000.0001)  MDS_READVEC_LOC: open file: delYFile
(PID.TID 0000.0001) S/R LOAD_GRID_SPACING: delY loaded from file: delYFile
(PID.TID 0000.0001) Enter INI_VERTICAL_GRID: setInterFDr=    T ; setCenterDr=    F
(PID.TID 0000.0001) %MON XC_max                       =  -5.9791692097973E+00
(PID.TID 0000.0001) %MON XC_min                       =  -8.1562502543132E+01
(PID.TID 0000.0001) %MON XC_mean                      =  -4.3137201855846E+01
(PID.TID 0000.0001) %MON XC_sd                        =   2.0424998826490E+01
(PID.TID 0000.0001) %MON XG_max                       =  -6.0000025431306E+00
(PID.TID 0000.0001) %MON XG_min                       =  -8.1583335876465E+01
(PID.TID 0000.0001) %MON XG_mean                      =  -4.3158035189179E+01
(PID.TID 0000.0001) %MON XG_sd                        =   2.0424998826490E+01
(PID.TID 0000.0001) %MON DXC_max                      =   4.1321680787049E+03
(PID.TID 0000.0001) %MON DXC_min                      =   3.3626505081640E+03
(PID.TID 0000.0001) %MON DXC_mean                     =   3.7688379354867E+03
(PID.TID 0000.0001) %MON DXC_sd                       =   2.2123866065857E+02
(PID.TID 0000.0001) %MON DXF_max                      =   4.1321680787049E+03
(PID.TID 0000.0001) %MON DXF_min                      =   3.3626505081640E+03
(PID.TID 0000.0001) %MON DXF_mean                     =   3.7688379354867E+03
(PID.TID 0000.0001) %MON DXF_sd                       =   2.2123866065857E+02
(PID.TID 0000.0001) %MON DXG_max                      =   4.1327922661025E+03
(PID.TID 0000.0001) %MON DXG_min                      =   3.3634327493196E+03
(PID.TID 0000.0001) %MON DXG_mean                     =   3.7695610776573E+03
(PID.TID 0000.0001) %MON DXG_sd                       =   2.2119398199636E+02
(PID.TID 0000.0001) %MON DXV_max                      =   4.1327922661025E+03
(PID.TID 0000.0001) %MON DXV_min                      =   3.3634327493196E+03
(PID.TID 0000.0001) %MON DXV_mean                     =   3.7695610776573E+03
(PID.TID 0000.0001) %MON DXV_sd                       =   2.2119398199636E+02
(PID.TID 0000.0001) %MON YC_max                       =   4.3456317901611E+01
(PID.TID 0000.0001) %MON YC_min                       =   2.6872378349304E+01
(PID.TID 0000.0001) %MON YC_mean                      =   3.5275583727019E+01
(PID.TID 0000.0001) %MON YC_sd                        =   4.7474247172398E+00
(PID.TID 0000.0001) %MON YG_max                       =   4.3442249298096E+01
(PID.TID 0000.0001) %MON YG_min                       =   2.6855293273926E+01
(PID.TID 0000.0001) %MON YG_mean                      =   3.5259938400870E+01
(PID.TID 0000.0001) %MON YG_sd                        =   4.7482908185653E+00
(PID.TID 0000.0001) %MON DYC_max                      =   3.7984208896988E+03
(PID.TID 0000.0001) %MON DYC_min                      =   3.1290718017248E+03
(PID.TID 0000.0001) %MON DYC_mean                     =   3.4788279395744E+03
(PID.TID 0000.0001) %MON DYC_sd                       =   1.9225943821366E+02
(PID.TID 0000.0001) %MON DYF_max                      =   3.7989510252033E+03
(PID.TID 0000.0001) %MON DYF_min                      =   3.1282235849176E+03
(PID.TID 0000.0001) %MON DYF_mean                     =   3.4788156621358E+03
(PID.TID 0000.0001) %MON DYF_sd                       =   1.9277710102670E+02
(PID.TID 0000.0001) %MON DYG_max                      =   3.7989510252033E+03
(PID.TID 0000.0001) %MON DYG_min                      =   3.1282235849176E+03
(PID.TID 0000.0001) %MON DYG_mean                     =   3.4788156621358E+03
(PID.TID 0000.0001) %MON DYG_sd                       =   1.9277710102670E+02
(PID.TID 0000.0001) %MON DYU_max                      =   3.7984208896988E+03
(PID.TID 0000.0001) %MON DYU_min                      =   3.1290718017248E+03
(PID.TID 0000.0001) %MON DYU_mean                     =   3.4788279395744E+03
(PID.TID 0000.0001) %MON DYU_sd                       =   1.9225943821366E+02
(PID.TID 0000.0001) %MON RA_max                       =   1.5697903926271E+07
(PID.TID 0000.0001) %MON RA_min                       =   1.0519122521772E+07
(PID.TID 0000.0001) %MON RA_mean                      =   1.3153740588860E+07
(PID.TID 0000.0001) %MON RA_sd                        =   1.4919356433086E+06
(PID.TID 0000.0001) %MON RAW_max                      =   1.5697903926271E+07
(PID.TID 0000.0001) %MON RAW_min                      =   1.0519122521772E+07
(PID.TID 0000.0001) %MON RAW_mean                     =   1.3153740588860E+07
(PID.TID 0000.0001) %MON RAW_sd                       =   1.4919356433086E+06
(PID.TID 0000.0001) %MON RAS_max                      =   1.5693341326465E+07
(PID.TID 0000.0001) %MON RAS_min                      =   1.0524423130684E+07
(PID.TID 0000.0001) %MON RAS_mean                     =   1.3156063218928E+07
(PID.TID 0000.0001) %MON RAS_sd                       =   1.4887747834009E+06
(PID.TID 0000.0001) %MON RAZ_max                      =   1.5693341326465E+07
(PID.TID 0000.0001) %MON RAZ_min                      =   1.0524423130684E+07
(PID.TID 0000.0001) %MON RAZ_mean                     =   1.3156063218928E+07
(PID.TID 0000.0001) %MON RAZ_sd                       =   1.4887747834009E+06
(PID.TID 0000.0001) %MON AngleCS_max                  =   1.0000000000000E+00
(PID.TID 0000.0001) %MON AngleCS_min                  =   1.0000000000000E+00
(PID.TID 0000.0001) %MON AngleCS_mean                 =   1.0000000000000E+00
(PID.TID 0000.0001) %MON AngleCS_sd                   =   1.1102230246252E-16
(PID.TID 0000.0001) %MON AngleSN_max                  =   0.0000000000000E+00
(PID.TID 0000.0001) %MON AngleSN_min                  =   0.0000000000000E+00
(PID.TID 0000.0001) %MON AngleSN_mean                 =   0.0000000000000E+00
(PID.TID 0000.0001) %MON AngleSN_sd                   =   0.0000000000000E+00
(PID.TID 0000.0001)  MDS_READ_FIELD: opening global file: bathy.bin
(PID.TID 0000.0001) // =======================================================
(PID.TID 0000.0001) // Field Model R_low (ini_masks_etc)
(PID.TID 0000.0001) // CMIN =         -5.628649414062500E+03
(PID.TID 0000.0001) // CMAX =         -5.000000000000000E+00
(PID.TID 0000.0001) // CINT =          2.082833116319445E+02
(PID.TID 0000.0001) // SYMBOLS (CMIN->CMAX): -abcdefghijklmnopqrstuvwxyz+
(PID.TID 0000.0001) //                  0.0: .
(PID.TID 0000.0001) // RANGE I (Lo:Hi:Step):(    -3:   334:     1)
(PID.TID 0000.0001) // RANGE J (Lo:Hi:Step):(    32:    -3:    -1)
(PID.TID 0000.0001) // RANGE K (Lo:Hi:Step):(   1:   1:   1)
(PID.TID 0000.0001) // =======================================================
(PID.TID 0000.0001) K =   1
(PID.TID 0000.0001) //                I=6       I=16      I=26      I=36      I=38      I=48      I=58      I=68      I=70      I=80      I=90      I=100     I=102     I=112     I=122     I=132     I=134     I=144     I=154     I=164     I=166     I=176     I=186     I=196     I=198     I=208     I=218     I=228     I=230     I=240     I=250     I=260     I=262     I=272     I=282     I=292     I=294     I=304     I=314     I=324     I=334
(PID.TID 0000.0001) // |--J--|321012345|789012345|789012345|789012345|701234567|901234567|901234567|901234567|903456789|123456789|123456789|123456789|123678901|345678901|345678901|345678901|345690123|567890123|567890123|567890123|567892345|789012345|789012345|789012345|789012567|901234567|901234567|901234567|901234589|123456789|123456789|123456789|123456781|345678901|345678901|345678901|345678901|567890123|567890123|567890123|567890123|
(PID.TID 0000.0001) //     32 ..............................+++++++++++++++++++++zzzyyyyxwwwwxxxxxxxxxwwwwwwwwwwwwwwwwwwwwwvvvvvvvvvvvvvvvvvvvvvvvvuuuuuuvvuuuuuuuuuuvvvvuuvuuuusqhdcccccccccccccccccccccccccdcccccccccccccdcccccccddddddddddddddddddddeeeeeefffeeeeeeeeeeeeeeeeddddeeeedddddddddccccccccccccccccddccccccccccccccccccbbbbabbaaaaa---aaaaaaaaa---aaaaaa--aaaaaaaaaaaa--------------aa--aaaaaaabbaaaaaabbaaaabbbaaabbbbbaabcdccbcbddcbbbbc
(PID.TID 0000.0001) //     31 ...............................++++++++++++++++++++zzzyyyyxxwwwxxxxxxxxxxwwwwwwwwwwwwwwwwwwwwvvvvvvvvvvvvvvvvvvvvvvvuuuuuuuvuuuuuuuuuuuuvvvvvvuuustngdcccdcddddccccddddccccdddddcccccccccccccdcdcccccdddddddddddddddddddddeeeeffffeeeeeeeeeeeeeeeeddddeeeeddddddddddcccccccccccccccddddccccccccccccccccbbbbaaaaaaaaa--aaaaaaaaaa--a--aaa--a--aaaaaaaaa--------------a--aaaaaaaabaaaaaaabaaaabbbbaaaabbbbbabccccbbcdcbbbbbb
(PID.TID 0000.0001) //     30 ...............................++++++++++++++++++++zzzyyyyxxwwwxxxxxxxxxxxwwwwwwwwwwwwwwwwwwwvvvvvvvvvvvvvvvvvvvvvuuuuuuuuuuuuuuuuuuvvuuuuuuvvuuutpgedccdddddddccccddddccccddcccccccccccccccdddddccccdddddddddddddddddddddeeeffffffeeeeeeeeeeeeeeeddddeeeeddddddddddcccccccdccccccddddcccccccccccccccccbbbbaaaaaaaaa--aaaaaaaaaaaaa--aaaaaa--aaaaaaaaaa--------a----aa--aaaaaaaaaaaaaaaaaaaabbbbaaaabbbbbbbbbccbcedbbbbbbc
(PID.TID 0000.0001) //     29 ...............................++++++++++++++++++++zzzyyyyxxwwwxxxxxxxxxxxxwwwwwwwxwwwwwwwwwwwvvvvvvvvvvvvvvvvvvvuuuuuuuvvuuuuuuvvuuvvvuuuuuuvuuutojecccccccddddccccddddcccccccccccccccccccddddddddddddddddddddddddddddddeeeeefffffeeeeeeeeeeeeeeeddddeeeedddddddddccccccccdddddccddddcccccccccccccccccbbbbaaaaaaaa-----aaaaaaaaaaaa----aaaa----aaaaaaaaaaaa---a--aaaa-aaaaaaaaaaaaaaaaaaaabbbbbbaaabbbbbbbbbbbbdebbbbbbbc
(PID.TID 0000.0001) //     28 ................................+++++++++++++++++++zzzyyyyxxwwxxxxxxxxxxxxxxwwwwwwxxwwwwwwwwwwvvvvvvvvvvvvvvvvvvuuuuuuuuuvuuuuuuuvuuvvvvuuuuuvuuttolfcccccccddddccccddddcccccccccccccccdcccddddcddddddddddddddddddddddddeeeeeefffffeeeeeeeeeeeeeedddddeeeddddddddddccccccccddddddddddccccccccccccccccccbbbbaaaaaa-----aa----aaaaaaaa-a--aaaa-a----aaaaaaaaa------aaa---aaaaaaaaaaaaaaaaaababbbbbbabbbbbbbbbbbbbbcdbbbbbbcc
(PID.TID 0000.0001) //     27 ................................+++++++++++++++++++zzzyyyyxxxxxxxxxxxxxxxxxxxwwwwwxxxwwwwwwwwwvvvvvvvvvvvvvvvvvuuuuuuuuuuvvuuuuuuvvvvvvvuuuuvvuustqnhdccccccdddddcccdddddcccccdddcccccdcccccddddddddddddddddddddddddddedeeeeeefffffeeeeeeeeeeeeeedddddeeeddddddddccccccccdddddddddccccccccccccbcccccccbbbbbaaaaa----aaaaa-----aaaaaaaaa-aaaaaaa---aaaaaaaa----------a--aaaaabaaaaaaabaaaababbbbbbbbbbbbbbbbbbbbbbcbbbbbccc
(PID.TID 0000.0001) //     26 .................................++++++++++++++++++zzzyyyyxxxxxxxxxxxxxxxxxxxxwwwwxxxxwwwwwwwwwvvvvvvvvvvvvvvvvuuuuuuuuuuvvuuuuuuvvvvvvvuuuuuvuututpjdcccccccdddddddcdddddddcdddddccdddccdddddcccdddddddddddddddddddddedeeeeefffffeeeeeeeeeeeeeeddddddeedddddddccccccccddddddddddddcccccccccccbcccccccbbbbbaaaaa---aaaaaaa-----aaaaaaaa-aaaaaaa----aaaaaaa--aaa--------aaaaaaaabbaaaaaabbaaabbbbbbbbbbbbbbbbbbabbcbbbbcccc
(PID.TID 0000.0001) //     25 .................................++++++++++++++++++zzzyyyyxxxxxxxxxxyyyxxxxxxxxwwwxxxxxwwwwwwwwvvvvvvvvvvvvvvvuuuuuttuuuuvvttuuuuvvvvvvvuuuuuuuuuutrkdcbcccccdddddddcddddddddddddddddddcdddddddccddddddddddddddddddddddddeeeefffffeeeeeeeeeeeddedddddddedddddddccccccccdddddddddddccccccccccccbcccccccbbbbaaaaaa---aaaaaaa-------aaa-aa--aaa-aa------a--aa--aaa--------aaaaaaaaaaaaaaaaaaaaabbbbbbbbbbbbabbbbbbbbbbbbbcccc
(PID.TID 0000.0001) //     24 .................................++++++++++++++++++zzzyyyyxxxxxxxxxyyyyyyyxxxxxxwwxxxxxxwwwwwwwwvvvvvvvvvvvvuuuuuuuttuuuuvvttuuuuvvvvvvvuuuuuuuutttrlecbbccccdddddddcddddddddddddddddddcdddddddddddddddddddddddddddddddddeeeffffffeeeeeeeeeeedeeddddddeeddddddcccccccdcddddcdddddcccccccccccccbcccccccbbbbbaaaaaa-aaaaaaaaa------aa---aa-aa---aa-----a-aa-------------aaaaaaaaaaaaaaaaaaaaabbbbbbbbbbbbbbbbbbabbbbbbbbcccc
(PID.TID 0000.0001) //     23 ..................................+++++++.+++++++++zzzyyyyxxxxxxxxxyyyyyyyyyxxxxxwyyxxxxxwwwwwwwvvvvvvvvvvvuuuuuuuutttuuuvvtttuuuvvvvvuuuuuuuuuutttpjecbccccccddddddccddddddddddddddddddddddddddddddddddddddddddddddddddeeeeffffffeeeeeeeeedeeeddddddceddddddccccccccdcddddccddcccccccccccccccbcccccccbbbbaaaaaaaaaaaaaaaaa-------a----a--a----a-aaa-aaaa---------aaaaaaaaaaaaabbaaaaaabbbbabbbbbaabbbbbbbbbcbbbbbbbbbcccc
(PID.TID 0000.0001) //     22 ..................................+++++++.+++++++++zzzyyyyxxxxxxxxxyyyyyyyyyyyxxxxyyyyxxxxxwwwwwwvvvvvvvvvuuuuuuuuutttuuuvvtttuuuvvvvuuuuuvuuuuttsrlhdccccccccddddddccddddddddddddddddddddddddddddddddddddeeedddddeeedddeeeeffffffeeeeeeeedeeeedddddddedddddddcccccccccccccdccccccccccccccccccbcccccccbbbbaaaaaaaaaaaaaaaaaa-----aaa-----aaa----aaaa-aaaa---------a--aaaaabaabbbaabaabbbaababbbaaaaabbbbaaabbbbbbbbbbbbccc
(PID.TID 0000.0001) //     21 ..................................+++++++.+++++++++zzzyyyyxxxxxxxxxyyyyyyyyyyyyyxxyyyyyyxxxxwwwwwvvvvvvvvvuuuuuuuuuttttuuuvttttuuuvvvvuuuuuuuuutsqmheddcccccccddddddccddddddddddddddddddddddddddddddddddddeeedddddeeeddeeeefffffffeeeeeeeedeeeddddcccdddddcccddcccccccccccccccccccccccccccccccbcccccccbbbbaaaaaaaaaaaaaaaaaa-----aaaaa---aaaaa---aaa--aaa------------aaaaaabbbbbaaabbbbbabaabbbbaaaabbbbaabcbbabbbbbbbbccc
(PID.TID 0000.0001) //     20 ...................................++++++..++++++++zzzyyyyxxxxxxxxxyyyyzyyyyyyyyyyyyyyyyyyxxxwwwwwvvvvvvvvuuuuuuuuuttttuuuvttttuuuvvvvvuuuuuuuttrqlfeedddcccccddddddccddddddddddddddddddddddddcdddddddddddeeddddddeedddeeeeffgffffeeeeeedeeeeeddddcccdddddcccdcccccccccccccccccccccccccccccccbbccccccbbbbbaaaaaaaaaaaaaaaaaa----aaaaaa--aaaaaa--------aa--aa--------aaaaaaaabaaaaaaabaaaaaaabbbbaaabbbbaaadcbbbbbbbbcbcccc
(PID.TID 0000.0001) //     19 ..................................+++++++.+++++++++zzzyyyyxwwxxxxxxyyyzzzyyyyyyyyyyyyyyyyyyyxxxwwwwvvvvvvvuuvuuuuuttttttuuutttttuuuuvvvuuuuuuuutttqkgeeedcccdcdddddddcddddddddddddddddddddddddcdddddddddddddddddddddddeeeeeffgffffeeeeeeeeeeedddcccdccddcccdccccccccccccccccccccccccccccccccbbbcccccbbbbbbaaaaaaaaaaaaaaaaaa---aaaaaaa--aaaaaa--aa-----a-aaaa--aaaa--aaaaaaaaaaaaaaaaaaaabaabbbbaaabbbbaaabaabbbbbbbcccccc
(PID.TID 0000.0001) //     18 ..................................+++++++.+++++++++zzzyyyyxxwxxxxxxyyyzzzzzzzzzyyyzzzzzyyyyyyxxxxwwwvvvvvvvvvvuuttttttttuuutttttuuuvvvvvuutttuuttusphfeddccdcccdddddcccddddddddddddddddddddddddddddddddddddddddddddddeeeeeeffffffeeeeeeeeeeeddddccccccddcccccccccccccccccccccccccccccccccccbbbbccccbbbbbbbbaaaaaaaaaaaaaaaa----aaaaaaa-aaaaaaa-aaa--------aaaaaaaa---aaaaaaaaaaaaaaaaaaaabbbaabaaabbabbbbaaaabbbbbbbbccccc
(PID.TID 0000.0001) //     17 ...................................++++++..++++++++zzzyyyyxwwxxxxxxyyzzzzzzzzzzzzzzzzzzzzzyyyyyxxxxwwvvvvvvvvvvuuuuuttttuuuuttttuuuuuvvvvuuuuuuttutqjgeddccccccdddddcccdddddddddddddddddddddddddedddddddddeeddddddeedeeeeefffffffeeeeeeeeeeedddddcdcccdddcdcccccccccccccccccccccccccccccbccbbbbcbccbbbbbbbbbaaaaaaaaaaaaaaa---aaaaaaaa--aaaaaa----------a-a----aa---aaaaaababbbbbababbbbbbbaaaaaaabaaabbbaaabbbbbbbbbccccc
(PID.TID 0000.0001) //     16 ...................................++++++..++++++++zzzyyyxxwwwxxxxxyyz+++++++++++z+++++++zzzzyyyyxxxwwwvvvvvvvvvuuuuuttuuuuuuttuuuuuvuvvvuuuuuuttttqmifddcccccccddddccccdddddddddddddddddddddddeeeddddddddeeedddddeeeeeeefffffffeeeeeeeeeeeeddddddddccddddddccccccccccccccccccccccccccccbbbbbbbcbbbbbbbbbbbaaaaaaaaaaaaaaaa--aaaaaaaa---aaaaa---aa--a--------------aaaaaaabbabbbbabbabbbbbaaabaaaaaaaaabccaabbbbbbbbbbbccc
(PID.TID 0000.0001) //     15 ....................................+++++...+++++++zzzyyyxxxxxxxxxxyyz++++++++++++++++++++++zzzyyyyxxwwwwvwvvvvvvvuuuuuuuuuuuuuuuuuuuuuuuuuuuuuttttspkgedcccccccddddccccdddddddddddddddddddddddeeeeeddededeeedededeeeeeeeffffffeeeeeeeedeeeeddddddddccddddddccccccccccccccccccccccccccccbbbbbbbcbbbbbbbbbbbaaaaaaaaaaaaaaaa--aaaaaaa----aaaa------a------aa-------aaaaaaabaaaaaabbaaaaaabbbaaaaaaaaaaabbbcbbbbbbbbcbbbbbcc
(PID.TID 0000.0001) //     14 ....................................+++++...+++++++zzzyyyxxxwxxxxxxyyz+++++++++++++++++++++++++zzzyyxxxxwwwwvvvvvvvuuuuuuuuuuuuuuuuuuuuuuuuuuuttstssrlgedddcccccddddccccddddddddddddddddddddddeeeeeeeeeeeeeeeeeeeeeeeeeefffffffeeeeeeddddededdddddddccddddddccccccccccccccccccccccccccccbbbbbbbcbbbbbbbbbbbaaaaaaaaaaaaaaa----aaaaa-----aaa-------aa------aa------aaaaaaaabaaaaababaaaaabbbaaaaaaaaaaabbbbbbbbbbbbcbbbbbbc
(PID.TID 0000.0001) //     13 .....................................++++....++++++zzzyyyxxwwwxxxxxyyz+++++++++++++++++++++++++++zzzyyxxxxwwwwvvvvvuuuuuuuuuuuuuuuuuuuuuuuuutttssssspieddddccccccdddcccccdddddddddddddddddddddeeeeeeddeeeeeeedeeeeeeeeefffffffffeeeedddddeedddddddddccddddddcccccccccccccccccccccccccccbbbbbbbbbbbbbbbbbbbbaaaaaaaaaaaaaaa----aaa-------a----------a------------a--aaaaaaaaaaaabbaaaaaabbbaaaaaaaaaabaabbbbbbbbbbbcbbbbbbb
(PID.TID 0000.0001) //     12 .....................................++++....++++++zzzyyyyxwwwxxxxxyyz++++++++++++++++++++++++++..+zzzyyxxxxwwvvvvvvuuutttuvuuutttuuuuuuuuttsttssssqmfeedddcccccccddccccccdddddddddddddddedddeeeeeeeddeeeeeeedeeeeeeeeefgfffffffeeeeddddddedddddddddccddddddcccccccccccccccccccccccccccbbcbbbbbbbcbbbbbbbbbaaaaaaaaaaaaaaaa---aa-------------------a------------aaaaa-aaaaaaaabbbaaaaabbbaaaaaaaaabbaaaaabbbbbbbbbbbbbbbbb
(PID.TID 0000.0001) //     11 ......................................+++.....+++++zzzyyyyxxxwxxxxxyyz++++++++++++++++++++++++++...++zzyyyyxxwwvvvvvuuuttttvuuuttttuuuutttttsssrssrngeeeddccccccccddccccccdddddddddedddddedddeeeeeeedeeeeeeeeeeeeeeeeeffgfffffffeeeddddddeedddddddddccddddddcccccccccccccccccccccccccbbbbcbbbbbbbcbbbbbbbbaaaaaaaaaaaaaaaaaa--aa----------------------------aaa---aa--aaaaaaaaabbaaaaaabbbaaaaaaaabbabaaabbbbbbbbbbbbbccbb
(PID.TID 0000.0001) //     10 ......................................+++.....+++++zzzyyyyxwwwwxxxxxyzz+++++++++++++++++++++++++....+++zzyyyyxwwwvvvvuutsssvvuutssstttttsrssssrrssqifeeedccccccdddddcccddddddddddddeeddddddddeeeeeeeeeeeeeeeeeeeeeeeeeffgfffffffeeeeddddeeeeddddddddccddddddcccccccccccccccccccccccccbbbbbbbbbbbbbbbbbbbbbaaaaaaaaaaaaaaaaaaaaaaa-------a------------------a------aa--aaaaaaaaabbaaaaaabbaaaaaaaaabaabaabbbbbbbbbbbbbbcbbb
(PID.TID 0000.0001) //      9 .......................................++......++++zzzyyyyxxwwwxxxxxyzz++++++++++++++++++++++++++.....+++zzzyyyxwwwvvvuusrrvvvuusrrrsssrqqrrrrsssrjffeddccccccddddddccdddddddddddddeeeeddddddeeeeeeeeeeeeeeeeeeeeeeeeefgggffffffeeeeeeeeeeeedddddddddcdddddddccccccccccbcccccccccccccbbbbbbbbbbbbbbbbbbbbaaaaaaaaaaaaaaaaaaaaaaa----------------------aaaa-------aa-aaaaaabaaaaababaaaaabbaaaaaaaaaaabbbbbbbbbbbbbbbbbcbbb
(PID.TID 0000.0001) //      8 .......................................++......++++zzzyyyyxxwwwxxxxxyzz+++++++++++++++++++++++++........+++zzzzyyxxwvvvutsrwvvvutsrrrrrrqrrqpqrqpnigfeddccccdddddddddddddddddddddddeeeeddeeeeeeeeeddeeeeeeeeeeeeeeeeeefgggffffeeeeeeeeeeeeedddddddddccddddddccccccccccbbcccccccccccccbbbbbbbbbbbbbbbbbbbaaaaaaaaaaaaaaaaaaaaaaaaa-------a-------aaaaaa-a---------a--aaaaaabaaabbbabaaabbbbaaaaaaaaaaabbbbbbbbbbbbbbbbbbbbb
(PID.TID 0000.0001) //      7 .......................................++......++++zzzyyyyxxwwwxxxxxyzz+++++++++++++++++++++++++..........++++zzzyyxwvvuuttxwvvuuttssrrssssqponoprhgfeddcccddddddddddddddddddddddddeeeeeeeeeeeeeeeddeeeeeeeeeeeeeeeeeffgggffffffeeeeeeeeeeeedddddddddcdddddddcccccccccbbcccccccccccccbbbbbbbbbbbbbbbbbbbaaaaaaaaaaaaaaaaaaaaaaaaaa--aaaaaa--aaaaa---------------aa---aaaaabbaabbbabbaabbbaaaaaaaaaaaaabbbbbbbbbbbbbbbbbbbb
(PID.TID 0000.0001) //      6 ........................................+.......+++zzzyyyyxxwwwxxxxxyzz++++++++++++++++++++++++...............+++zzyxxwvtuuyxxwvtuuuutstuttrpmjjkkgfedccccddedddddddedddddddddddddddeeeeeeeeeeeeeedddeeeeeeffeeeeeefffffffffffffeeeeeeeeeeeedddddddddcdddddddccccccccbbccccccccccccccbbbbbbbbbbbbbbbbbbbbaaaaaaaaaaaaaaaaaaaaaaaaaaa----aaaa---------a----------a-a--aaaaabaaaaaaabaaaaaaaaaaaaaaaaaaabbbbbbbbbbbccbbbaaab
(PID.TID 0000.0001) //      5 ........................................+.......+++zzzyyyxxxwwwxxxxxxyzzz+++++++++++++++++++++...................++zzyxwuuvzzyxwuuvuuttuuvvurojhgfeddcccccdddddddddddddddddddddddddddeeeeeeeeeeeeeeeeeeeeefffeeeeefffffffffffffffeeeeeeeeeeeddddddddccddddddcccccccccbbcccbbbbccccbbbbbbbbbbbbbbbbbbbbbbbbbaaaaaaaaaaaaaaaaaaaaaaaaa----aaaa------------aa------a-a-aaaaabaaaaaaabaaaaaaaaaaa-aaabaaaabbbbbbbbbbbcbbbaaaab
(PID.TID 0000.0001) //      4 ........................................+.......+++zzzyyyxxxwwwxxxxxxyzzzz++++++++++++++++++........................+zyxwvv.+zyxwvvuuuuuvvvutsonlhgeccccccdddddddddddddddddddddddddddeeeeeeeeeeeeeeeeeeeeefffeeeeeffffffffffffffffeeeeeeeeeddddddddddcdddddddccccccccbccccbbbbbcccbbbbbbbbbbbbbbbbbbbbbbbbaaaaaaaaaaaaaaaaaaaaa--aaa-----aaa-------------aa----a---aaaaaaaaaaaaaaaaaaaaaaaaaaaaabbaaaabbbbaabbbbbbbbbaaaaa
(PID.TID 0000.0001) //      3 ........................................+.......+++zzzyyyxxxwwwxxxxxxyyzzz+++++++++++++++++..........................+zyxwu..+zyxwuuuuuuvvvvuusstpnhddccccddddddddddddddddddddddeedddeeeeeeeeeeeeeeeeeeedefffeeedeffffefffffffffffeeeeeeeeeddddddddddcdddddddcccccccccccccbbbbbbccbbbbbbbbbbbbbbbbbbbbbbbbaaaaaaaaaaaaaaaaaaaa---aa------aa---------------aa-------aaaaaaaaaaaaaaaaaaaaaaaaaaaaabbaaaabbbbaaabbbbbbbaaaaaa
(PID.TID 0000.0001) //      2 ........................................+.......+++zzzyyyxxxxwwxxxxxxyyzzz++++++++++++++++............................+zyxw...+zyxwvvvvvvvvvuuttttrkeddccddddddddddddddddddddeeeeeddeeeeeeeeeeeeeeeeeeeeeeeffeeeeeeffeffffffffffffeeeeeeeeeddddddddddcdddddddccccccccccccbbbbcbbbbcbbbbbbbbbbbbbbbbbbbbbaaaaaaaaaaaaaaaa----a----a-------a-----------------a------aaaaaaaaaaaaaaaaaaaaaaaaaaaaabbaaaaabbbbbbbbbbbbbaaaaaaa
(PID.TID 0000.0001) //      1 ..........................................................................................................................................................................................................................................................................................................................................................................................................................
(PID.TID 0000.0001) //      0 ..........................................................................................................................................................................................................................................................................................................................................................................................................................
(PID.TID 0000.0001) //     -1 .................................................................................................................................................................................................................................................................................................................................................+++++++zzzzzzzzzzzzzzzzzzzzzzzzzzzzzzzzzzzz++zzz+zzzzzzzzzzzzzzzzzzzzzzzz
(PID.TID 0000.0001) //     -2 ................................................................................................................................................................................................................................................................................................................................................+++++++zzzzzzzzzzzzzzzzzzzzzzzzzzzzzzzzzzzzzzz+++zzzzzzzzzzzzzzzzzzzzzzzzz
(PID.TID 0000.0001) //     -3 ................................................................................................................................................................................................................................................................................................................................................+++++++zzzzzzzzzzzzzzzzzzzzzzzzzzzzzzzzzzzzzzz+++zzzzzzzzzzzzzzzzzzzzzzzzz
(PID.TID 0000.0001) // =======================================================
(PID.TID 0000.0001) // END OF FIELD                                          =
(PID.TID 0000.0001) // =======================================================
(PID.TID 0000.0001) 
(PID.TID 0000.0001) // =======================================================
(PID.TID 0000.0001) // Field Model Ro_surf (ini_masks_etc)
(PID.TID 0000.0001) // CMIN =          1.000000000000000E+32
(PID.TID 0000.0001) // CMAX =         -1.000000000000000E+32
(PID.TID 0000.0001) // CINT =          0.000000000000000E+00
(PID.TID 0000.0001) // SYMBOLS (CMIN->CMAX): -abcdefghijklmnopqrstuvwxyz+
(PID.TID 0000.0001) //                  0.0: .
(PID.TID 0000.0001) // RANGE I (Lo:Hi:Step):(    -3:   334:     1)
(PID.TID 0000.0001) // RANGE J (Lo:Hi:Step):(    32:    -3:    -1)
(PID.TID 0000.0001) // RANGE K (Lo:Hi:Step):(   1:   1:   1)
(PID.TID 0000.0001) // =======================================================
(PID.TID 0000.0001) // =======================================================
(PID.TID 0000.0001) // END OF FIELD                                          =
(PID.TID 0000.0001) // =======================================================
(PID.TID 0000.0001) 
(PID.TID 0000.0001) // =======================================================
(PID.TID 0000.0001) // Field hFacC at iteration          0
(PID.TID 0000.0001) // CMIN =          1.000000000000000E+00
(PID.TID 0000.0001) // CMAX =          1.000000000000000E+00
(PID.TID 0000.0001) // CINT =          0.000000000000000E+00
(PID.TID 0000.0001) // SYMBOLS (CMIN->CMAX): -abcdefghijklmnopqrstuvwxyz+
(PID.TID 0000.0001) //                  0.0: .
(PID.TID 0000.0001) // RANGE I (Lo:Hi:Step):(    -3:   334:     1)
(PID.TID 0000.0001) // RANGE J (Lo:Hi:Step):(    32:    -3:    -1)
(PID.TID 0000.0001) // RANGE K (Lo:Hi:Step):(   1:   1:   1)
(PID.TID 0000.0001) // =======================================================
(PID.TID 0000.0001) // =======================================================
(PID.TID 0000.0001) // END OF FIELD                                          =
(PID.TID 0000.0001) // =======================================================
(PID.TID 0000.0001) 
(PID.TID 0000.0001) // =======================================================
(PID.TID 0000.0001) // Field hFacW at iteration          0
(PID.TID 0000.0001) // CMIN =          1.000000000000000E+00
(PID.TID 0000.0001) // CMAX =          1.000000000000000E+00
(PID.TID 0000.0001) // CINT =          0.000000000000000E+00
(PID.TID 0000.0001) // SYMBOLS (CMIN->CMAX): -abcdefghijklmnopqrstuvwxyz+
(PID.TID 0000.0001) //                  0.0: .
(PID.TID 0000.0001) // RANGE I (Lo:Hi:Step):(    -3:   334:     1)
(PID.TID 0000.0001) // RANGE J (Lo:Hi:Step):(    32:    -3:    -1)
(PID.TID 0000.0001) // RANGE K (Lo:Hi:Step):(   1:   1:   1)
(PID.TID 0000.0001) // =======================================================
(PID.TID 0000.0001) // =======================================================
(PID.TID 0000.0001) // END OF FIELD                                          =
(PID.TID 0000.0001) // =======================================================
(PID.TID 0000.0001) 
(PID.TID 0000.0001) // =======================================================
(PID.TID 0000.0001) // Field hFacS at iteration          0
(PID.TID 0000.0001) // CMIN =          1.000000000000000E+00
(PID.TID 0000.0001) // CMAX =          1.000000000000000E+00
(PID.TID 0000.0001) // CINT =          0.000000000000000E+00
(PID.TID 0000.0001) // SYMBOLS (CMIN->CMAX): -abcdefghijklmnopqrstuvwxyz+
(PID.TID 0000.0001) //                  0.0: .
(PID.TID 0000.0001) // RANGE I (Lo:Hi:Step):(    -3:   334:     1)
(PID.TID 0000.0001) // RANGE J (Lo:Hi:Step):(    32:    -3:    -1)
(PID.TID 0000.0001) // RANGE K (Lo:Hi:Step):(   1:   1:   1)
(PID.TID 0000.0001) // =======================================================
(PID.TID 0000.0001) // =======================================================
(PID.TID 0000.0001) // END OF FIELD                                          =
(PID.TID 0000.0001) // =======================================================
(PID.TID 0000.0001) 
(PID.TID 0000.0001) 
(PID.TID 0000.0001) // =======================================================
(PID.TID 0000.0001) // Calendar configuration >>> START <<<
(PID.TID 0000.0001) // =======================================================
(PID.TID 0000.0001) 
(PID.TID 0000.0001) modelstart = /* Start time of the model integration [s] */
(PID.TID 0000.0001)                 0.000000000000000E+00
(PID.TID 0000.0001)     ;
(PID.TID 0000.0001) modelend  = /* End time of the model integration [s] */
(PID.TID 0000.0001)                 3.600000000000000E+03
(PID.TID 0000.0001)     ;
(PID.TID 0000.0001) modelStep = /* Time interval for a model forward step [s] */
(PID.TID 0000.0001)                 2.400000000000000E+02
(PID.TID 0000.0001)     ;
(PID.TID 0000.0001) usingGregorianCalendar= /* Calendar Type: Gregorian Calendar */
(PID.TID 0000.0001)                   T
(PID.TID 0000.0001)     ;
(PID.TID 0000.0001) usingJulianCalendar = /* Calendar Type: Julian Calendar */
(PID.TID 0000.0001)                   F
(PID.TID 0000.0001)     ;
(PID.TID 0000.0001) usingNoLeapYearCal  = /* Calendar Type: without Leap Year */
(PID.TID 0000.0001)                   F
(PID.TID 0000.0001)     ;
(PID.TID 0000.0001) usingModelCalendar  = /* Calendar Type: Model Calendar */
(PID.TID 0000.0001)                   F
(PID.TID 0000.0001)     ;
(PID.TID 0000.0001) modelStartDate YYYYMMDD = /* Model start date YYYY-MM-DD */
(PID.TID 0000.0001)                20080101
(PID.TID 0000.0001)     ;
(PID.TID 0000.0001)   modelStartDate HHMMSS = /* Model start date HH-MM-SS  */
(PID.TID 0000.0001)                       0
(PID.TID 0000.0001)     ;
(PID.TID 0000.0001) modelEndDate   YYYYMMDD = /* Model end date YYYY-MM-DD */
(PID.TID 0000.0001)                20080101
(PID.TID 0000.0001)     ;
(PID.TID 0000.0001)   modelEndDate   HHMMSS = /* Model end date HH-MM-SS  */
(PID.TID 0000.0001)                   10000
(PID.TID 0000.0001)     ;
(PID.TID 0000.0001) intyears = /* Number of calendar years affected by the integration */
(PID.TID 0000.0001)                       1
(PID.TID 0000.0001)     ;
(PID.TID 0000.0001) intmonths= /* Number of calendar months affected by the integration */
(PID.TID 0000.0001)                       1
(PID.TID 0000.0001)     ;
(PID.TID 0000.0001) intdays = /* Number of calendar days affected by the integration */
(PID.TID 0000.0001)                       1
(PID.TID 0000.0001)     ;
(PID.TID 0000.0001) modelIter0 = /* Base timestep number  */
(PID.TID 0000.0001)                       0
(PID.TID 0000.0001)     ;
(PID.TID 0000.0001) modelIterEnd = /* Final timestep number  */
(PID.TID 0000.0001)                      15
(PID.TID 0000.0001)     ;
(PID.TID 0000.0001) modelIntSteps= /* Number of model timesteps  */
(PID.TID 0000.0001)                      15
(PID.TID 0000.0001)     ;
(PID.TID 0000.0001) 
(PID.TID 0000.0001) // =======================================================
(PID.TID 0000.0001) // Calendar configuration  >>> END <<<
(PID.TID 0000.0001) // =======================================================
(PID.TID 0000.0001) 
(PID.TID 0000.0001) GAD_INIT_FIXED: GAD_OlMinSize=  4  0  1
(PID.TID 0000.0001) 
(PID.TID 0000.0001) // ===================================
(PID.TID 0000.0001) // GAD parameters :
(PID.TID 0000.0001) // ===================================
(PID.TID 0000.0001) tempAdvScheme =   /* Temp. Horiz.Advection scheme selector */
(PID.TID 0000.0001)                       7
(PID.TID 0000.0001)     ;
(PID.TID 0000.0001) tempVertAdvScheme =   /* Temp. Vert. Advection scheme selector */
(PID.TID 0000.0001)                       7
(PID.TID 0000.0001)     ;
(PID.TID 0000.0001) tempMultiDimAdvec =   /* use Muti-Dim Advec method for Temp */
(PID.TID 0000.0001)                   T
(PID.TID 0000.0001)     ;
(PID.TID 0000.0001) tempSOM_Advection = /* use 2nd Order Moment Advection for Temp */
(PID.TID 0000.0001)                   F
(PID.TID 0000.0001)     ;
(PID.TID 0000.0001) AdamsBashforthGt = /* apply Adams-Bashforth extrapolation on Gt */
(PID.TID 0000.0001)                   F
(PID.TID 0000.0001)     ;
(PID.TID 0000.0001) AdamsBashforth_T = /* apply Adams-Bashforth extrapolation on Temp */
(PID.TID 0000.0001)                   F
(PID.TID 0000.0001)     ;
(PID.TID 0000.0001) saltAdvScheme =   /* Salt. Horiz.advection scheme selector */
(PID.TID 0000.0001)                       7
(PID.TID 0000.0001)     ;
(PID.TID 0000.0001) saltVertAdvScheme =   /* Salt. Vert. Advection scheme selector */
(PID.TID 0000.0001)                       7
(PID.TID 0000.0001)     ;
(PID.TID 0000.0001) saltMultiDimAdvec =   /* use Muti-Dim Advec method for Salt */
(PID.TID 0000.0001)                   T
(PID.TID 0000.0001)     ;
(PID.TID 0000.0001) saltSOM_Advection = /* use 2nd Order Moment Advection for Salt */
(PID.TID 0000.0001)                   F
(PID.TID 0000.0001)     ;
(PID.TID 0000.0001) AdamsBashforthGs = /* apply Adams-Bashforth extrapolation on Gs */
(PID.TID 0000.0001)                   F
(PID.TID 0000.0001)     ;
(PID.TID 0000.0001) AdamsBashforth_S = /* apply Adams-Bashforth extrapolation on Salt */
(PID.TID 0000.0001)                   F
(PID.TID 0000.0001)     ;
(PID.TID 0000.0001) // ===================================
(PID.TID 0000.0001) OBCS_INIT_FIXED: Setting OB indices in Overlap
(PID.TID 0000.0001)  Sets OBS(i,bi,bj=   37,  1,  1)=    2
(PID.TID 0000.0001)  Sets OBS(i,bi,bj=   34,  2,  1)=    2
(PID.TID 0000.0001)  Sets OBS(i,bi,bj=   35,  2,  1)=    2
(PID.TID 0000.0001)  Sets OBS(i,bi,bj=   36,  2,  1)=    2
(PID.TID 0000.0001)  Sets OBS(i,bi,bj=   37,  2,  1)=    2
(PID.TID 0000.0001)  Sets OBS(i,bi,bj=   -3,  3,  1)=    2
(PID.TID 0000.0001)  Sets OBS(i,bi,bj=   -2,  3,  1)=    2
(PID.TID 0000.0001)  Sets OBS(i,bi,bj=   -1,  3,  1)=    2
(PID.TID 0000.0001)  Sets OBS(i,bi,bj=    0,  3,  1)=    2
(PID.TID 0000.0001)  Sets OBS(i,bi,bj=   34,  3,  1)=    2
(PID.TID 0000.0001)  Sets OBS(i,bi,bj=   35,  3,  1)=    2
(PID.TID 0000.0001)  Sets OBS(i,bi,bj=   36,  3,  1)=    2
(PID.TID 0000.0001)  Sets OBS(i,bi,bj=   37,  3,  1)=    2
(PID.TID 0000.0001)  Sets OBS(i,bi,bj=    0,  4,  1)=    2
(PID.TID 0000.0001)  Sets OBS(i,bi,bj=   34,  4,  1)=    2
(PID.TID 0000.0001)  Sets OBS(i,bi,bj=   35,  4,  1)=    2
(PID.TID 0000.0001)  Sets OBS(i,bi,bj=   36,  4,  1)=    2
(PID.TID 0000.0001)  Sets OBS(i,bi,bj=   37,  4,  1)=    2
(PID.TID 0000.0001)  Sets OBS(i,bi,bj=   -3,  5,  1)=    2
(PID.TID 0000.0001)  Sets OBS(i,bi,bj=   -2,  5,  1)=    2
(PID.TID 0000.0001)  Sets OBS(i,bi,bj=   -1,  5,  1)=    2
(PID.TID 0000.0001)  Sets OBS(i,bi,bj=    0,  5,  1)=    2
(PID.TID 0000.0001)  Sets OBS(i,bi,bj=   34,  5,  1)=    2
(PID.TID 0000.0001)  Sets OBS(i,bi,bj=   35,  5,  1)=    2
(PID.TID 0000.0001)  Sets OBS(i,bi,bj=   36,  5,  1)=    2
(PID.TID 0000.0001)  Sets OBS(i,bi,bj=   37,  5,  1)=    2
(PID.TID 0000.0001)  Sets OBS(i,bi,bj=   -3,  6,  1)=    2
(PID.TID 0000.0001)  Sets OBS(i,bi,bj=   -2,  6,  1)=    2
(PID.TID 0000.0001)  Sets OBS(i,bi,bj=   -1,  6,  1)=    2
(PID.TID 0000.0001)  Sets OBS(i,bi,bj=    0,  6,  1)=    2
(PID.TID 0000.0001)  Sets OBS(i,bi,bj=   34,  6,  1)=    2
(PID.TID 0000.0001)  Sets OBS(i,bi,bj=   35,  6,  1)=    2
(PID.TID 0000.0001)  Sets OBS(i,bi,bj=   36,  6,  1)=    2
(PID.TID 0000.0001)  Sets OBS(i,bi,bj=   37,  6,  1)=    2
(PID.TID 0000.0001)  Sets OBS(i,bi,bj=   -3,  7,  1)=    2
(PID.TID 0000.0001)  Sets OBS(i,bi,bj=   -2,  7,  1)=    2
(PID.TID 0000.0001)  Sets OBS(i,bi,bj=   -1,  7,  1)=    2
(PID.TID 0000.0001)  Sets OBS(i,bi,bj=    0,  7,  1)=    2
(PID.TID 0000.0001)  Sets OBS(i,bi,bj=   34,  7,  1)=    2
(PID.TID 0000.0001)  Sets OBS(i,bi,bj=   35,  7,  1)=    2
(PID.TID 0000.0001)  Sets OBS(i,bi,bj=   36,  7,  1)=    2
(PID.TID 0000.0001)  Sets OBS(i,bi,bj=   37,  7,  1)=    2
(PID.TID 0000.0001)  Sets OBS(i,bi,bj=   -3,  8,  1)=    2
(PID.TID 0000.0001)  Sets OBS(i,bi,bj=   -2,  8,  1)=    2
(PID.TID 0000.0001)  Sets OBS(i,bi,bj=   -1,  8,  1)=    2
(PID.TID 0000.0001)  Sets OBS(i,bi,bj=    0,  8,  1)=    2
(PID.TID 0000.0001)  Sets OBS(i,bi,bj=   34,  8,  1)=    2
(PID.TID 0000.0001)  Sets OBS(i,bi,bj=   35,  8,  1)=    2
(PID.TID 0000.0001)  Sets OBS(i,bi,bj=   36,  8,  1)=    2
(PID.TID 0000.0001)  Sets OBS(i,bi,bj=   37,  8,  1)=    2
(PID.TID 0000.0001)  Sets OBS(i,bi,bj=   -3,  9,  1)=    2
(PID.TID 0000.0001)  Sets OBS(i,bi,bj=   -2,  9,  1)=    2
(PID.TID 0000.0001)  Sets OBS(i,bi,bj=   -1,  9,  1)=    2
(PID.TID 0000.0001)  Sets OBS(i,bi,bj=    0,  9,  1)=    2
(PID.TID 0000.0001)  Sets OBS(i,bi,bj=   34,  9,  1)=    2
(PID.TID 0000.0001)  Sets OBS(i,bi,bj=   35,  9,  1)=    2
(PID.TID 0000.0001)  Sets OBS(i,bi,bj=   36,  9,  1)=    2
(PID.TID 0000.0001)  Sets OBS(i,bi,bj=   37,  9,  1)=    2
(PID.TID 0000.0001)  Sets OBS(i,bi,bj=   -3, 10,  1)=    2
(PID.TID 0000.0001)  Sets OBS(i,bi,bj=   -2, 10,  1)=    2
(PID.TID 0000.0001)  Sets OBS(i,bi,bj=   -1, 10,  1)=    2
(PID.TID 0000.0001)  Sets OBS(i,bi,bj=    0, 10,  1)=    2
(PID.TID 0000.0001)  Sets OBS(i,bi,bj=   34, 10,  1)=    2
(PID.TID 0000.0001)  Sets OBS(i,bi,bj=   35, 10,  1)=    2
(PID.TID 0000.0001)  Sets OBS(i,bi,bj=   36, 10,  1)=    2
(PID.TID 0000.0001)  Sets OBS(i,bi,bj=   37, 10,  1)=    2
(PID.TID 0000.0001) OBCS_INIT_FIXED: Setting OB indices in Overlap <= done
(PID.TID 0000.0001) 
(PID.TID 0000.0001) // =======================================================
(PID.TID 0000.0001) // External forcing (EXF) configuration >>> START <<<
(PID.TID 0000.0001) // =======================================================
(PID.TID 0000.0001) 
(PID.TID 0000.0001)  EXF general parameters:
(PID.TID 0000.0001) 
(PID.TID 0000.0001) exf_iprec = /* exf file precision */
(PID.TID 0000.0001)                      32
(PID.TID 0000.0001)     ;
(PID.TID 0000.0001) useExfYearlyFields = /* add extension _YEAR to input file names */
(PID.TID 0000.0001)                   T
(PID.TID 0000.0001)     ;
(PID.TID 0000.0001) twoDigitYear = /* use 2-digit year extension */
(PID.TID 0000.0001)                   F
(PID.TID 0000.0001)     ;
(PID.TID 0000.0001) useExfCheckRange = /* check for fields range */
(PID.TID 0000.0001)                   F
(PID.TID 0000.0001)     ;
(PID.TID 0000.0001) exf_output_interp = /* output directly interpolation result */
(PID.TID 0000.0001)                   F
(PID.TID 0000.0001)     ;
(PID.TID 0000.0001) exf_debugLev = /* select EXF-debug printing level */
(PID.TID 0000.0001)                       2
(PID.TID 0000.0001)     ;
(PID.TID 0000.0001) exf_monFreq  = /* EXF monitor frequency [ s ] */
(PID.TID 0000.0001)                 2.400000000000000E+02
(PID.TID 0000.0001)     ;
(PID.TID 0000.0001) repeatPeriod = /* period for cycling forcing dataset [ s ] */
(PID.TID 0000.0001)                 0.000000000000000E+00
(PID.TID 0000.0001)     ;
(PID.TID 0000.0001) climTempFreeze= /* Minimum climatological temperature [deg.C] */
(PID.TID 0000.0001)                -1.900000000000000E+00
(PID.TID 0000.0001)     ;
(PID.TID 0000.0001) windStressMax = /* Maximum absolute windstress [ Pa ] */
(PID.TID 0000.0001)                 2.000000000000000E+00
(PID.TID 0000.0001)     ;
(PID.TID 0000.0001) stressIsOnCgrid = /* set u,v_stress on Arakawa C-grid */
(PID.TID 0000.0001)                   F
(PID.TID 0000.0001)     ;
(PID.TID 0000.0001) rotateStressOnAgrid = /* rotate u,v_stress on Arakawa A-grid */
(PID.TID 0000.0001)                   F
(PID.TID 0000.0001)     ;
(PID.TID 0000.0001) cen2kel = /* conversion of deg. Centigrade to Kelvin [K] */
(PID.TID 0000.0001)                 2.731500000000000E+02
(PID.TID 0000.0001)     ;
(PID.TID 0000.0001) gravity_mks= /* gravitational acceleration [m/s^2] */
(PID.TID 0000.0001)                 9.810000000000000E+00
(PID.TID 0000.0001)     ;
(PID.TID 0000.0001) atmrho =  /* mean atmospheric density [kg/m^3] */
(PID.TID 0000.0001)                 1.200000000000000E+00
(PID.TID 0000.0001)     ;
(PID.TID 0000.0001) atmcp =  /* mean atmospheric specific heat [J/kg/K] */
(PID.TID 0000.0001)                 1.005000000000000E+03
(PID.TID 0000.0001)     ;
(PID.TID 0000.0001) flamb =  /* latent heat of evaporation [J/kg] */
(PID.TID 0000.0001)                 2.500000000000000E+06
(PID.TID 0000.0001)     ;
(PID.TID 0000.0001) flami =  /* latent heat of pure-ice melting [J/kg] */
(PID.TID 0000.0001)                 3.340000000000000E+05
(PID.TID 0000.0001)     ;
(PID.TID 0000.0001) cvapor_fac = /* const. for Saturation calculation [?] */
(PID.TID 0000.0001)                 6.403800000000000E+05
(PID.TID 0000.0001)     ;
(PID.TID 0000.0001) cvapor_exp = /* const. for Saturation calculation [?] */
(PID.TID 0000.0001)                 5.107400000000000E+03
(PID.TID 0000.0001)     ;
(PID.TID 0000.0001) cvapor_fac_ice= /* const. for Saturation calculation [?] */
(PID.TID 0000.0001)                 1.163780000000000E+07
(PID.TID 0000.0001)     ;
(PID.TID 0000.0001) cvapor_exp_ice= /* const. for Saturation calculation [?] */
(PID.TID 0000.0001)                 5.897800000000000E+03
(PID.TID 0000.0001)     ;
(PID.TID 0000.0001) humid_fac = /* humidity coef. in virtual temp. [(kg/kg)^-1] */
(PID.TID 0000.0001)                 6.060000000000000E-01
(PID.TID 0000.0001)     ;
(PID.TID 0000.0001) gamma_blk = /* adiabatic lapse rate [?] */
(PID.TID 0000.0001)                 1.000000000000000E-02
(PID.TID 0000.0001)     ;
(PID.TID 0000.0001) saltsat = /* reduction of Qsat over salty water [-] */
(PID.TID 0000.0001)                 9.800000000000000E-01
(PID.TID 0000.0001)     ;
(PID.TID 0000.0001) noNegativeEvap = /* prevent negative Evaporation */
(PID.TID 0000.0001)                   F
(PID.TID 0000.0001)     ;
(PID.TID 0000.0001) sstExtrapol = /* extrapolation coeff from lev. 1 & 2 to surf [-] */
(PID.TID 0000.0001)                 0.000000000000000E+00
(PID.TID 0000.0001)     ;
(PID.TID 0000.0001) cDrag_1 = /* coef used in drag calculation [?] */
(PID.TID 0000.0001)                 2.700000000000000E-03
(PID.TID 0000.0001)     ;
(PID.TID 0000.0001) cDrag_2 = /* coef used in drag calculation [?] */
(PID.TID 0000.0001)                 1.420000000000000E-04
(PID.TID 0000.0001)     ;
(PID.TID 0000.0001) cDrag_3 = /* coef used in drag calculation [?] */
(PID.TID 0000.0001)                 7.640000000000000E-05
(PID.TID 0000.0001)     ;
(PID.TID 0000.0001) cStanton_1 = /* coef used in Stanton number calculation [?] */
(PID.TID 0000.0001)                 3.270000000000000E-02
(PID.TID 0000.0001)     ;
(PID.TID 0000.0001) cStanton_2 = /* coef used in Stanton number calculation [?] */
(PID.TID 0000.0001)                 1.800000000000000E-02
(PID.TID 0000.0001)     ;
(PID.TID 0000.0001) cDalton = /* coef used in Dalton number calculation [?] */
(PID.TID 0000.0001)                 3.460000000000000E-02
(PID.TID 0000.0001)     ;
(PID.TID 0000.0001) exf_scal_BulkCdn= /* Drag coefficient scaling factor [-] */
(PID.TID 0000.0001)                 1.000000000000000E+00
(PID.TID 0000.0001)     ;
(PID.TID 0000.0001) zolmin = /* minimum stability parameter [?] */
(PID.TID 0000.0001)                -1.000000000000000E+02
(PID.TID 0000.0001)     ;
(PID.TID 0000.0001) psim_fac = /* coef used in turbulent fluxes calculation [-] */
(PID.TID 0000.0001)                 5.000000000000000E+00
(PID.TID 0000.0001)     ;
(PID.TID 0000.0001) zref =  /* reference height [ m ] */
(PID.TID 0000.0001)                 1.000000000000000E+01
(PID.TID 0000.0001)     ;
(PID.TID 0000.0001) hu =  /* height of mean wind [ m ] */
(PID.TID 0000.0001)                 1.000000000000000E+01
(PID.TID 0000.0001)     ;
(PID.TID 0000.0001) ht =  /* height of mean temperature [ m ] */
(PID.TID 0000.0001)                 2.000000000000000E+00
(PID.TID 0000.0001)     ;
(PID.TID 0000.0001) hq =  /* height of mean spec.humidity [ m ] */
(PID.TID 0000.0001)                 2.000000000000000E+00
(PID.TID 0000.0001)     ;
(PID.TID 0000.0001) uMin = /* minimum wind speed [m/s] */
(PID.TID 0000.0001)                 5.000000000000000E-01
(PID.TID 0000.0001)     ;
(PID.TID 0000.0001) useStabilityFct_overIce= /* transfert Coeffs over sea-ice depend on stability */
(PID.TID 0000.0001)                   F
(PID.TID 0000.0001)     ;
(PID.TID 0000.0001) exf_iceCd = /* drag coefficient over sea-ice (fixed) [-] */
(PID.TID 0000.0001)                 1.630000000000000E-03
(PID.TID 0000.0001)     ;
(PID.TID 0000.0001) exf_iceCe = /* transfert coeff. over sea-ice, for Evap (fixed) [-] */
(PID.TID 0000.0001)                 1.630000000000000E-03
(PID.TID 0000.0001)     ;
(PID.TID 0000.0001) exf_iceCh = /* transfert coeff. over sea-ice, Sens.Heat.(fixed)[-] */
(PID.TID 0000.0001)                 1.630000000000000E-03
(PID.TID 0000.0001)     ;
(PID.TID 0000.0001) exf_albedo =  /* Sea-water albedo [-] */
(PID.TID 0000.0001)                 1.000000000000000E-01
(PID.TID 0000.0001)     ;
(PID.TID 0000.0001) useExfZenAlbedo = /* Sea-water albedo varies with zenith angle */
(PID.TID 0000.0001)                   T
(PID.TID 0000.0001)     ;
(PID.TID 0000.0001) select_ZenAlbedo = /* Sea-water albedo computation method */
(PID.TID 0000.0001)                       1
(PID.TID 0000.0001)     ;
(PID.TID 0000.0001) useExfZenIncoming = /* compute incoming solar radiation */
(PID.TID 0000.0001)                   T
(PID.TID 0000.0001)     ;
(PID.TID 0000.0001) ocean_emissivity = /* longwave ocean-surface emissivity [-] */
(PID.TID 0000.0001)                 9.700000000000000E-01
(PID.TID 0000.0001)     ;
(PID.TID 0000.0001) ice_emissivity = /* longwave seaice emissivity [-] */
(PID.TID 0000.0001)                 9.500000000000000E-01
(PID.TID 0000.0001)     ;
(PID.TID 0000.0001) snow_emissivity = /* longwave snow  emissivity [-] */
(PID.TID 0000.0001)                 9.500000000000000E-01
(PID.TID 0000.0001)     ;
(PID.TID 0000.0001) 
(PID.TID 0000.0001)  EXF main CPP flags:
(PID.TID 0000.0001) 
(PID.TID 0000.0001) // USE_EXF_INTERPOLATION:              defined
(PID.TID 0000.0001) // ALLOW_ATM_TEMP:                     defined
(PID.TID 0000.0001) // ALLOW_ATM_WIND (useAtmWind):        defined
(PID.TID 0000.0001) // ALLOW_DOWNWARD_RADIATION:           defined
(PID.TID 0000.0001) // ALLOW_BULKFORMULAE:                 defined
(PID.TID 0000.0001) 
(PID.TID 0000.0001)    Zonal wind forcing starts at                          0.
(PID.TID 0000.0001)    Zonal wind forcing period is                       3600.
(PID.TID 0000.0001)    Zonal wind forcing repeat-cycle is                    0.
(PID.TID 0000.0001)    Zonal wind forcing is read from file:
(PID.TID 0000.0001)    >> era5/ERA5_u10m <<
(PID.TID 0000.0001)    interpolate "uwind" (method= 12 ):
(PID.TID 0000.0001)    lon0=   0.00000, nlon=  1280, lon_inc= 0.2812500
(PID.TID 0000.0001)    lat0= -89.78489, nlat=   640, inc(min,max)= 0.27868 0.28103
(PID.TID 0000.0001) 
(PID.TID 0000.0001)    Meridional wind forcing starts at                     0.
(PID.TID 0000.0001)    Meridional wind forcing period is                  3600.
(PID.TID 0000.0001)    Meridional wind forcing repeat-cycle is               0.
(PID.TID 0000.0001)    Meridional wind forcing is read from file:
(PID.TID 0000.0001)    >> era5/ERA5_v10m <<
(PID.TID 0000.0001)    interpolate "vwind" (method= 22 ):
(PID.TID 0000.0001)    lon0=   0.00000, nlon=  1280, lon_inc= 0.2812500
(PID.TID 0000.0001)    lat0= -89.78489, nlat=   640, inc(min,max)= 0.27868 0.28103
(PID.TID 0000.0001)     Interp. U & V comp. together: uvInterp_wind =    T
(PID.TID 0000.0001) 
(PID.TID 0000.0001)    Atmospheric temperature starts at                     0.
(PID.TID 0000.0001)    Atmospheric temperature period is                  3600.
(PID.TID 0000.0001)    Atmospheric temperature repeat-cycle is               0.
(PID.TID 0000.0001)    Atmospheric temperature is read from file:
(PID.TID 0000.0001)    >> era5/ERA5_tmp2m_degC <<
(PID.TID 0000.0001)    interpolate "atemp" (method=  1 ):
(PID.TID 0000.0001)    lon0=   0.00000, nlon=  1280, lon_inc= 0.2812500
(PID.TID 0000.0001)    lat0= -89.78489, nlat=   640, inc(min,max)= 0.27868 0.28103
(PID.TID 0000.0001) 
(PID.TID 0000.0001)    Atmospheric specific humidity starts at               0.
(PID.TID 0000.0001)    Atmospheric specific humidity period is            3600.
(PID.TID 0000.0001)    Atmospheric specific humidity rep-cycle is            0.
(PID.TID 0000.0001)    Atmospheric specific humidity is read from file:
(PID.TID 0000.0001)    >> era5/ERA5_spfh2m <<
(PID.TID 0000.0001)    interpolate "aqh" (method=  1 ):
(PID.TID 0000.0001)    lon0=   0.00000, nlon=  1280, lon_inc= 0.2812500
(PID.TID 0000.0001)    lat0= -89.78489, nlat=   640, inc(min,max)= 0.27868 0.28103
(PID.TID 0000.0001) 
(PID.TID 0000.0001) // ALLOW_READ_TURBFLUXES:          NOT defined
(PID.TID 0000.0001) // EXF_READ_EVAP:                  NOT defined
(PID.TID 0000.0001) 
(PID.TID 0000.0001)    Precipitation data starts at                       1800.
(PID.TID 0000.0001)    Precipitation data period is                       3600.
(PID.TID 0000.0001)    Precipitation data repeat-cycle is                    0.
(PID.TID 0000.0001)    Precipitation data is read from file:
(PID.TID 0000.0001)    >> era5/ERA5_rain <<
(PID.TID 0000.0001)    interpolate "precip" (method=  1 ):
(PID.TID 0000.0001)    lon0=   0.00000, nlon=  1280, lon_inc= 0.2812500
(PID.TID 0000.0001)    lat0= -89.78489, nlat=   640, inc(min,max)= 0.27868 0.28103
(PID.TID 0000.0001) 
(PID.TID 0000.0001) // ALLOW_RUNOFF:                       defined
(PID.TID 0000.0001)    Runoff data period is                               -12.
(PID.TID 0000.0001)    Runoff data is read from file:
(PID.TID 0000.0001)    >> runoff1p2472-360x180x12.bin <<
(PID.TID 0000.0001)    interpolate "runoff" (method=  1 ):
(PID.TID 0000.0001)    lon0=   0.50000, nlon=   360, lon_inc= 1.0000000
(PID.TID 0000.0001)    lat0= -89.50000, nlat=   180, lat_inc= 1.0000000
(PID.TID 0000.0001) 
(PID.TID 0000.0001) // ALLOW_RUNOFTEMP:                NOT defined
(PID.TID 0000.0001) // ALLOW_SALTFLX:                      defined
(PID.TID 0000.0001) 
(PID.TID 0000.0001)    Downward shortwave flux starts at                  1800.
(PID.TID 0000.0001)    Downward shortwave flux period is                  3600.
(PID.TID 0000.0001)    Downward shortwave flux repeat-cycle is               0.
(PID.TID 0000.0001)    Downward shortwave flux is read from file:
(PID.TID 0000.0001)    >> era5/ERA5_dsw <<
(PID.TID 0000.0001)    interpolate "swdown" (method=  1 ):
(PID.TID 0000.0001)    lon0=   0.00000, nlon=  1280, lon_inc= 0.2812500
(PID.TID 0000.0001)    lat0= -89.78489, nlat=   640, inc(min,max)= 0.27868 0.28103
(PID.TID 0000.0001) 
(PID.TID 0000.0001)    Downward longwave flux starts at                   1800.
(PID.TID 0000.0001)    Downward longwave flux period is                   3600.
(PID.TID 0000.0001)    Downward longwave flux repeat-cycle is                0.
(PID.TID 0000.0001)    Downward longwave flux is read from file:
(PID.TID 0000.0001)    >> era5/ERA5_dlw <<
(PID.TID 0000.0001)    interpolate "lwdown" (method=  1 ):
(PID.TID 0000.0001)    lon0=   0.00000, nlon=  1280, lon_inc= 0.2812500
(PID.TID 0000.0001)    lat0= -89.78489, nlat=   640, inc(min,max)= 0.27868 0.28103
(PID.TID 0000.0001) 
(PID.TID 0000.0001)    Atmospheric pressure forcing starts at                0.
(PID.TID 0000.0001)    Atmospheric pressure forcing period is             3600.
(PID.TID 0000.0001)    Atmospheric pressure forcing rep-cycle is             0.
(PID.TID 0000.0001)    Atmospheric pressure forcing is read from file:
(PID.TID 0000.0001)    >> era5/ERA5_pres <<
(PID.TID 0000.0001)    interpolate "apressure" (method=  1 ):
(PID.TID 0000.0001)    lon0=   0.00000, nlon=  1280, lon_inc= 0.2812500
(PID.TID 0000.0001)    lat0= -89.78489, nlat=   640, inc(min,max)= 0.27868 0.28103
(PID.TID 0000.0001) 
(PID.TID 0000.0001)    Tidal geopotential starts at                          0.
(PID.TID 0000.0001)    Tidal geopotential period is                       3600.
(PID.TID 0000.0001)    Tidal geopotential repeat-cycle is                    0.
(PID.TID 0000.0001)    Tidal geopotential is read from file:
(PID.TID 0000.0001)    >> tide_IAU_EARTH <<
(PID.TID 0000.0001)    interpolate "tidePot" (method=  1 ):
(PID.TID 0000.0001)    lon0=   0.00000, nlon=   360, lon_inc= 1.0000000
(PID.TID 0000.0001)    lat0= -90.00000, nlat=   181, lat_inc= 1.0000000
(PID.TID 0000.0001) 
(PID.TID 0000.0001) // =======================================================
(PID.TID 0000.0001) // External forcing (EXF) climatology configuration :
(PID.TID 0000.0001) // =======================================================
(PID.TID 0000.0001) 
(PID.TID 0000.0001) // ALLOW_CLIMSST_RELAXATION:       NOT defined
(PID.TID 0000.0001) 
(PID.TID 0000.0001) // ALLOW_CLIMSSS_RELAXATION:       NOT defined
(PID.TID 0000.0001) 
(PID.TID 0000.0001) // =======================================================
(PID.TID 0000.0001) // External forcing (EXF) configuration  >>> END <<<
(PID.TID 0000.0001) // =======================================================
(PID.TID 0000.0001) 
(PID.TID 0000.0001) ------------------------------------------------------------
(PID.TID 0000.0001) DIAGNOSTICS_SET_LEVELS: done
(PID.TID 0000.0001)  Total Nb of available Diagnostics: ndiagt=   213
(PID.TID 0000.0001)  write list of available Diagnostics to file: available_diagnostics.log
(PID.TID 0000.0001) SETDIAG: Allocate  1 x  1 Levels for Diagnostic #    23 ETAN
(PID.TID 0000.0001) SETDIAG: Allocate  1 x  1 Levels for Diagnostic #    80 oceTAUX
(PID.TID 0000.0001) SETDIAG: Allocate  1 x  1 Levels for Diagnostic #    81 oceTAUY
(PID.TID 0000.0001) SETDIAG: Allocate  1 x  1 Levels for Diagnostic #   185 EXFuwind
(PID.TID 0000.0001) SETDIAG: Allocate  1 x  1 Levels for Diagnostic #   186 EXFvwind
(PID.TID 0000.0001) SETDIAG: Allocate100 x  1 Levels for Diagnostic #    26 THETA
(PID.TID 0000.0001) SETDIAG: Allocate100 x  1 Levels for Diagnostic #    27 SALT
(PID.TID 0000.0001) SETDIAG: Allocate100 x  1 Levels for Diagnostic #    30 UVEL
(PID.TID 0000.0001) SETDIAG: Allocate100 x  1 Levels for Diagnostic #    31 VVEL
(PID.TID 0000.0001) SETDIAG: Allocate100 x  1 Levels for Diagnostic #    32 WVEL
(PID.TID 0000.0001) SETDIAG: Allocate100 x  1 Levels for Diagnostic #    36 UVELSQ
(PID.TID 0000.0001) SETDIAG: Allocate100 x  1 Levels for Diagnostic #    37 VVELSQ
(PID.TID 0000.0001) SETDIAG: Allocate100 x  1 Levels for Diagnostic #    52 WTHMASS
(PID.TID 0000.0001) SETDIAG: Allocate100 x  1 Levels for Diagnostic #    55 WSLTMASS
(PID.TID 0000.0001)   space allocated for all diagnostics:     905 levels
(PID.TID 0000.0001)   set mate pointer for diag #    80  oceTAUX  , Parms: UU      U1 , mate:    81
(PID.TID 0000.0001)   set mate pointer for diag #    81  oceTAUY  , Parms: VV      U1 , mate:    80
(PID.TID 0000.0001)   set mate pointer for diag #    30  UVEL     , Parms: UUR     MR , mate:    31
(PID.TID 0000.0001)   set mate pointer for diag #    31  VVEL     , Parms: VVR     MR , mate:    30
(PID.TID 0000.0001)   set mate pointer for diag #    36  UVELSQ   , Parms: UURP    MR , mate:    37
(PID.TID 0000.0001)   set mate pointer for diag #    37  VVELSQ   , Parms: VVRP    MR , mate:    36
(PID.TID 0000.0001) DIAGNOSTICS_SET_POINTERS: Set levels for Outp.Stream: diags/surface
(PID.TID 0000.0001)  Levels:       1.
(PID.TID 0000.0001) DIAGNOSTICS_SET_POINTERS: Set levels for Outp.Stream: diags/interior
(PID.TID 0000.0001)  Levels:       1.   2.   3.   4.   5.   6.   7.   8.   9.  10.  11.  12.  13.  14.  15.  16.  17.  18.  19.  20.
(PID.TID 0000.0001)  Levels:      21.  22.  23.  24.  25.  26.  27.  28.  29.  30.  31.  32.  33.  34.  35.  36.  37.  38.  39.  40.
(PID.TID 0000.0001)  Levels:      41.  42.  43.  44.  45.  46.  47.  48.  49.  50.  51.  52.  53.  54.  55.  56.  57.  58.  59.  60.
(PID.TID 0000.0001)  Levels:      61.  62.  63.  64.  65.  66.  67.  68.  69.  70.  71.  72.  73.  74.  75.  76.  77.  78.  79.  80.
(PID.TID 0000.0001)  Levels:      81.  82.  83.  84.  85.  86.  87.  88.  89.  90.  91.  92.  93.  94.  95.  96.  97.  98.  99. 100.
(PID.TID 0000.0001) DIAGNOSTICS_SET_POINTERS: done
(PID.TID 0000.0001) ------------------------------------------------------------
(PID.TID 0000.0001) DIAGSTATS_SET_REGIONS: define no region
(PID.TID 0000.0001) ------------------------------------------------------------
(PID.TID 0000.0001)   space allocated for all stats-diags:       0 levels
(PID.TID 0000.0001) DIAGSTATS_SET_POINTERS: done
(PID.TID 0000.0001) ------------------------------------------------------------
(PID.TID 0000.0001) %MON fCori_max                    =   1.0031064840358E-04
(PID.TID 0000.0001) %MON fCori_min                    =   6.5921486603128E-05
(PID.TID 0000.0001) %MON fCori_mean                   =   8.3936872523081E-05
(PID.TID 0000.0001) %MON fCori_sd                     =   9.8545159722241E-06
(PID.TID 0000.0001) %MON fCoriG_max                   =   1.0028465045639E-04
(PID.TID 0000.0001) %MON fCoriG_min                   =   6.5882690911173E-05
(PID.TID 0000.0001) %MON fCoriG_mean                  =   8.3904363816394E-05
(PID.TID 0000.0001) %MON fCoriG_sd                    =   9.8581982025545E-06
(PID.TID 0000.0001) %MON fCoriCos_max                 =   1.3009374988389E-04
(PID.TID 0000.0001) %MON fCoriCos_min                 =   1.0586689743103E-04
(PID.TID 0000.0001) %MON fCoriCos_mean                =   1.1865496523699E-04
(PID.TID 0000.0001) %MON fCoriCos_sd                  =   6.9652943530273E-06
(PID.TID 0000.0001) INI_CG2D: CG2D normalisation factor =  1.4987118910715993E-04
(PID.TID 0000.0001) INI_CG2D: cg2dTolerance = 7.057154425756234E-12 (Area=1.1301151824E+13)
(PID.TID 0000.0001) 
(PID.TID 0000.0001) // =======================================================
(PID.TID 0000.0001) // Model configuration
(PID.TID 0000.0001) // =======================================================
(PID.TID 0000.0001) //
(PID.TID 0000.0001) // "Physical" paramters ( PARM01 in namelist )
(PID.TID 0000.0001) //
(PID.TID 0000.0001) buoyancyRelation = /* Type of relation to get Buoyancy */
(PID.TID 0000.0001)               'OCEANIC'
(PID.TID 0000.0001)     ;
(PID.TID 0000.0001) fluidIsAir   =  /* fluid major constituent is Air */
(PID.TID 0000.0001)                   F
(PID.TID 0000.0001)     ;
(PID.TID 0000.0001) fluidIsWater =  /* fluid major constituent is Water */
(PID.TID 0000.0001)                   T
(PID.TID 0000.0001)     ;
(PID.TID 0000.0001) usingPCoords =  /* use p (or p*) vertical coordinate */
(PID.TID 0000.0001)                   F
(PID.TID 0000.0001)     ;
(PID.TID 0000.0001) usingZCoords =  /* use z (or z*) vertical coordinate */
(PID.TID 0000.0001)                   T
(PID.TID 0000.0001)     ;
(PID.TID 0000.0001) tRef =   /* Reference temperature profile ( oC or K ) */
(PID.TID 0000.0001)     5 @  1.889000000000000E+01,             /* K =  1:  5 */
(PID.TID 0000.0001)                 1.887000000000000E+01,      /* K =  6 */
(PID.TID 0000.0001)                 1.885000000000000E+01,      /* K =  7 */
(PID.TID 0000.0001)                 1.882000000000000E+01,      /* K =  8 */
(PID.TID 0000.0001)                 1.880000000000000E+01,      /* K =  9 */
(PID.TID 0000.0001)                 1.873000000000000E+01,      /* K = 10 */
(PID.TID 0000.0001)                 1.863000000000000E+01,      /* K = 11 */
(PID.TID 0000.0001)                 1.849000000000000E+01,      /* K = 12 */
(PID.TID 0000.0001)                 1.828000000000000E+01,      /* K = 13 */
(PID.TID 0000.0001)                 1.808000000000000E+01,      /* K = 14 */
(PID.TID 0000.0001)                 1.786000000000000E+01,      /* K = 15 */
(PID.TID 0000.0001)                 1.763000000000000E+01,      /* K = 16 */
(PID.TID 0000.0001)                 1.740000000000000E+01,      /* K = 17 */
(PID.TID 0000.0001)                 1.718000000000000E+01,      /* K = 18 */
(PID.TID 0000.0001)                 1.695000000000000E+01,      /* K = 19 */
(PID.TID 0000.0001)                 1.673000000000000E+01,      /* K = 20 */
(PID.TID 0000.0001)                 1.652000000000000E+01,      /* K = 21 */
(PID.TID 0000.0001)                 1.631000000000000E+01,      /* K = 22 */
(PID.TID 0000.0001)                 1.610000000000000E+01,      /* K = 23 */
(PID.TID 0000.0001)                 1.589000000000000E+01,      /* K = 24 */
(PID.TID 0000.0001)                 1.569000000000000E+01,      /* K = 25 */
(PID.TID 0000.0001)                 1.549000000000000E+01,      /* K = 26 */
(PID.TID 0000.0001)                 1.528000000000000E+01,      /* K = 27 */
(PID.TID 0000.0001)                 1.508000000000000E+01,      /* K = 28 */
(PID.TID 0000.0001)                 1.488000000000000E+01,      /* K = 29 */
(PID.TID 0000.0001)                 1.467000000000000E+01,      /* K = 30 */
(PID.TID 0000.0001)                 1.447000000000000E+01,      /* K = 31 */
(PID.TID 0000.0001)                 1.425000000000000E+01,      /* K = 32 */
(PID.TID 0000.0001)                 1.403000000000000E+01,      /* K = 33 */
(PID.TID 0000.0001)                 1.380000000000000E+01,      /* K = 34 */
(PID.TID 0000.0001)                 1.355000000000000E+01,      /* K = 35 */
(PID.TID 0000.0001)                 1.329000000000000E+01,      /* K = 36 */
(PID.TID 0000.0001)                 1.301000000000000E+01,      /* K = 37 */
(PID.TID 0000.0001)                 1.273000000000000E+01,      /* K = 38 */
(PID.TID 0000.0001)                 1.242000000000000E+01,      /* K = 39 */
(PID.TID 0000.0001)                 1.211000000000000E+01,      /* K = 40 */
(PID.TID 0000.0001)                 1.178000000000000E+01,      /* K = 41 */
(PID.TID 0000.0001)                 1.143000000000000E+01,      /* K = 42 */
(PID.TID 0000.0001)                 1.107000000000000E+01,      /* K = 43 */
(PID.TID 0000.0001)                 1.070000000000000E+01,      /* K = 44 */
(PID.TID 0000.0001)                 1.031000000000000E+01,      /* K = 45 */
(PID.TID 0000.0001)                 9.930000000000000E+00,      /* K = 46 */
(PID.TID 0000.0001)                 9.529999999999999E+00,      /* K = 47 */
(PID.TID 0000.0001)                 9.109999999999999E+00,      /* K = 48 */
(PID.TID 0000.0001)                 8.710000000000001E+00,      /* K = 49 */
(PID.TID 0000.0001)                 8.289999999999999E+00,      /* K = 50 */
(PID.TID 0000.0001)                 7.890000000000000E+00,      /* K = 51 */
(PID.TID 0000.0001)                 7.510000000000000E+00,      /* K = 52 */
(PID.TID 0000.0001)                 7.130000000000000E+00,      /* K = 53 */
(PID.TID 0000.0001)                 6.780000000000000E+00,      /* K = 54 */
(PID.TID 0000.0001)                 6.440000000000000E+00,      /* K = 55 */
(PID.TID 0000.0001)                 6.110000000000000E+00,      /* K = 56 */
(PID.TID 0000.0001)                 5.810000000000000E+00,      /* K = 57 */
(PID.TID 0000.0001)                 5.510000000000000E+00,      /* K = 58 */
(PID.TID 0000.0001)                 5.230000000000000E+00,      /* K = 59 */
(PID.TID 0000.0001)                 4.970000000000000E+00,      /* K = 60 */
(PID.TID 0000.0001)                 4.730000000000000E+00,      /* K = 61 */
(PID.TID 0000.0001)                 4.510000000000000E+00,      /* K = 62 */
(PID.TID 0000.0001)                 4.300000000000000E+00,      /* K = 63 */
(PID.TID 0000.0001)                 4.110000000000000E+00,      /* K = 64 */
(PID.TID 0000.0001)                 3.940000000000000E+00,      /* K = 65 */
(PID.TID 0000.0001)                 3.780000000000000E+00,      /* K = 66 */
(PID.TID 0000.0001)                 3.630000000000000E+00,      /* K = 67 */
(PID.TID 0000.0001)                 3.500000000000000E+00,      /* K = 68 */
(PID.TID 0000.0001)                 3.380000000000000E+00,      /* K = 69 */
(PID.TID 0000.0001)                 3.250000000000000E+00,      /* K = 70 */
(PID.TID 0000.0001)                 3.140000000000000E+00,      /* K = 71 */
(PID.TID 0000.0001)                 3.040000000000000E+00,      /* K = 72 */
(PID.TID 0000.0001)                 2.940000000000000E+00,      /* K = 73 */
(PID.TID 0000.0001)                 2.830000000000000E+00,      /* K = 74 */
(PID.TID 0000.0001)                 2.740000000000000E+00,      /* K = 75 */
(PID.TID 0000.0001)                 2.640000000000000E+00,      /* K = 76 */
(PID.TID 0000.0001)                 2.540000000000000E+00,      /* K = 77 */
(PID.TID 0000.0001)                 2.450000000000000E+00,      /* K = 78 */
(PID.TID 0000.0001)                 2.360000000000000E+00,      /* K = 79 */
(PID.TID 0000.0001)                 2.270000000000000E+00,      /* K = 80 */
(PID.TID 0000.0001)                 2.190000000000000E+00,      /* K = 81 */
(PID.TID 0000.0001)                 2.100000000000000E+00,      /* K = 82 */
(PID.TID 0000.0001)                 2.030000000000000E+00,      /* K = 83 */
(PID.TID 0000.0001)                 1.950000000000000E+00,      /* K = 84 */
(PID.TID 0000.0001)                 1.860000000000000E+00,      /* K = 85 */
(PID.TID 0000.0001)                 1.780000000000000E+00,      /* K = 86 */
(PID.TID 0000.0001)                 1.700000000000000E+00,      /* K = 87 */
(PID.TID 0000.0001)                 1.630000000000000E+00,      /* K = 88 */
(PID.TID 0000.0001)                 1.550000000000000E+00,      /* K = 89 */
(PID.TID 0000.0001)                 1.480000000000000E+00,      /* K = 90 */
(PID.TID 0000.0001)                 1.410000000000000E+00,      /* K = 91 */
(PID.TID 0000.0001)                 1.340000000000000E+00,      /* K = 92 */
(PID.TID 0000.0001)                 1.270000000000000E+00,      /* K = 93 */
(PID.TID 0000.0001)                 1.200000000000000E+00,      /* K = 94 */
(PID.TID 0000.0001)                 1.130000000000000E+00,      /* K = 95 */
(PID.TID 0000.0001)                 1.060000000000000E+00,      /* K = 96 */
(PID.TID 0000.0001)                 1.000000000000000E+00,      /* K = 97 */
(PID.TID 0000.0001)                 9.600000000000000E-01,      /* K = 98 */
(PID.TID 0000.0001)                 9.300000000000000E-01,      /* K = 99 */
(PID.TID 0000.0001)                 9.100000000000000E-01       /* K =100 */
(PID.TID 0000.0001)     ;
(PID.TID 0000.0001) sRef =   /* Reference salinity profile ( psu ) */
(PID.TID 0000.0001)     6 @  3.484000000000000E+01,             /* K =  1:  6 */
(PID.TID 0000.0001)     3 @  3.485000000000000E+01,             /* K =  7:  9 */
(PID.TID 0000.0001)                 3.486000000000000E+01,      /* K = 10 */
(PID.TID 0000.0001)                 3.487000000000000E+01,      /* K = 11 */
(PID.TID 0000.0001)                 3.488000000000000E+01,      /* K = 12 */
(PID.TID 0000.0001)                 3.490000000000000E+01,      /* K = 13 */
(PID.TID 0000.0001)                 3.491000000000000E+01,      /* K = 14 */
(PID.TID 0000.0001)                 3.493000000000000E+01,      /* K = 15 */
(PID.TID 0000.0001)                 3.495000000000000E+01,      /* K = 16 */
(PID.TID 0000.0001)                 3.496000000000000E+01,      /* K = 17 */
(PID.TID 0000.0001)                 3.498000000000000E+01,      /* K = 18 */
(PID.TID 0000.0001)                 3.499000000000000E+01,      /* K = 19 */
(PID.TID 0000.0001)                 3.500000000000000E+01,      /* K = 20 */
(PID.TID 0000.0001)                 3.501000000000000E+01,      /* K = 21 */
(PID.TID 0000.0001)                 3.502000000000000E+01,      /* K = 22 */
(PID.TID 0000.0001)                 3.503000000000000E+01,      /* K = 23 */
(PID.TID 0000.0001)                 3.504000000000000E+01,      /* K = 24 */
(PID.TID 0000.0001)                 3.505000000000000E+01,      /* K = 25 */
(PID.TID 0000.0001)                 3.506000000000000E+01,      /* K = 26 */
(PID.TID 0000.0001)     7 @  3.507000000000000E+01,             /* K = 27: 33 */
(PID.TID 0000.0001)                 3.506000000000000E+01,      /* K = 34 */
(PID.TID 0000.0001)                 3.505000000000000E+01,      /* K = 35 */
(PID.TID 0000.0001)                 3.504000000000000E+01,      /* K = 36 */
(PID.TID 0000.0001)                 3.503000000000000E+01,      /* K = 37 */
(PID.TID 0000.0001)                 3.502000000000000E+01,      /* K = 38 */
(PID.TID 0000.0001)                 3.501000000000000E+01,      /* K = 39 */
(PID.TID 0000.0001)                 3.499000000000000E+01,      /* K = 40 */
(PID.TID 0000.0001)                 3.497000000000000E+01,      /* K = 41 */
(PID.TID 0000.0001)                 3.495000000000000E+01,      /* K = 42 */
(PID.TID 0000.0001)                 3.492000000000000E+01,      /* K = 43 */
(PID.TID 0000.0001)                 3.490000000000000E+01,      /* K = 44 */
(PID.TID 0000.0001)                 3.487000000000000E+01,      /* K = 45 */
(PID.TID 0000.0001)                 3.484000000000000E+01,      /* K = 46 */
(PID.TID 0000.0001)                 3.481000000000000E+01,      /* K = 47 */
(PID.TID 0000.0001)                 3.478000000000000E+01,      /* K = 48 */
(PID.TID 0000.0001)                 3.475000000000000E+01,      /* K = 49 */
(PID.TID 0000.0001)                 3.472000000000000E+01,      /* K = 50 */
(PID.TID 0000.0001)                 3.469000000000000E+01,      /* K = 51 */
(PID.TID 0000.0001)                 3.467000000000000E+01,      /* K = 52 */
(PID.TID 0000.0001)                 3.465000000000000E+01,      /* K = 53 */
(PID.TID 0000.0001)                 3.462000000000000E+01,      /* K = 54 */
(PID.TID 0000.0001)                 3.461000000000000E+01,      /* K = 55 */
(PID.TID 0000.0001)                 3.460000000000000E+01,      /* K = 56 */
(PID.TID 0000.0001)     2 @  3.459000000000000E+01,             /* K = 57: 58 */
(PID.TID 0000.0001)                 3.458000000000000E+01,      /* K = 59 */
(PID.TID 0000.0001)     2 @  3.459000000000000E+01,             /* K = 60: 61 */
(PID.TID 0000.0001)     2 @  3.460000000000000E+01,             /* K = 62: 63 */
(PID.TID 0000.0001)                 3.461000000000000E+01,      /* K = 64 */
(PID.TID 0000.0001)                 3.462000000000000E+01,      /* K = 65 */
(PID.TID 0000.0001)                 3.463000000000000E+01,      /* K = 66 */
(PID.TID 0000.0001)                 3.464000000000000E+01,      /* K = 67 */
(PID.TID 0000.0001)                 3.465000000000000E+01,      /* K = 68 */
(PID.TID 0000.0001)                 3.466000000000000E+01,      /* K = 69 */
(PID.TID 0000.0001)     2 @  3.467000000000000E+01,             /* K = 70: 71 */
(PID.TID 0000.0001)                 3.468000000000000E+01,      /* K = 72 */
(PID.TID 0000.0001)                 3.469000000000000E+01,      /* K = 73 */
(PID.TID 0000.0001)                 3.470000000000000E+01,      /* K = 74 */
(PID.TID 0000.0001)     2 @  3.471000000000000E+01,             /* K = 75: 76 */
(PID.TID 0000.0001)     2 @  3.472000000000000E+01,             /* K = 77: 78 */
(PID.TID 0000.0001)     3 @  3.473000000000000E+01,             /* K = 79: 81 */
(PID.TID 0000.0001)     4 @  3.474000000000000E+01,             /* K = 82: 85 */
(PID.TID 0000.0001)                 3.475000000000000E+01,      /* K = 86 */
(PID.TID 0000.0001)     8 @  3.474000000000000E+01,             /* K = 87: 94 */
(PID.TID 0000.0001)     6 @  3.473000000000000E+01              /* K = 95:100 */
(PID.TID 0000.0001)     ;
(PID.TID 0000.0001) useStrainTensionVisc= /* Use StrainTension Form of Viscous Operator */
(PID.TID 0000.0001)                   F
(PID.TID 0000.0001)     ;
(PID.TID 0000.0001) useVariableVisc = /* Use variable horizontal viscosity */
(PID.TID 0000.0001)                   T
(PID.TID 0000.0001)     ;
(PID.TID 0000.0001) useHarmonicVisc = /* Use harmonic horizontal viscosity */
(PID.TID 0000.0001)                   F
(PID.TID 0000.0001)     ;
(PID.TID 0000.0001) useBiharmonicVisc= /* Use biharmonic horiz.  viscosity */
(PID.TID 0000.0001)                   T
(PID.TID 0000.0001)     ;
(PID.TID 0000.0001) useSmag3D = /* Use isotropic 3-D Smagorinsky viscosity */
(PID.TID 0000.0001)                   F
(PID.TID 0000.0001)     ;
(PID.TID 0000.0001) viscAh  =   /* Lateral harmonic viscosity ( m^2/s ) */
(PID.TID 0000.0001)                 0.000000000000000E+00
(PID.TID 0000.0001)     ;
(PID.TID 0000.0001) viscAhMax = /* Maximum lateral harmonic viscosity ( m^2/s ) */
(PID.TID 0000.0001)                 1.000000000000000E+21
(PID.TID 0000.0001)     ;
(PID.TID 0000.0001) viscAhGrid = /* Grid dependent lateral harmonic viscosity ( non-dim. ) */
(PID.TID 0000.0001)                 0.000000000000000E+00
(PID.TID 0000.0001)     ;
(PID.TID 0000.0001) useFullLeith = /* Use Full Form of Leith Viscosity on/off flag*/
(PID.TID 0000.0001)                   F
(PID.TID 0000.0001)     ;
(PID.TID 0000.0001) useAreaViscLength = /* Use area for visc length instead of geom. mean*/
(PID.TID 0000.0001)                   T
(PID.TID 0000.0001)     ;
(PID.TID 0000.0001) viscC2leith = /* Leith harmonic visc. factor (on grad(vort),non-dim.) */
(PID.TID 0000.0001)                 0.000000000000000E+00
(PID.TID 0000.0001)     ;
(PID.TID 0000.0001) viscC2leithD = /* Leith harmonic viscosity factor (on grad(div),non-dim.)*/
(PID.TID 0000.0001)                 0.000000000000000E+00
(PID.TID 0000.0001)     ;
(PID.TID 0000.0001) viscC2smag = /* Smagorinsky harmonic viscosity factor (non-dim.) */
(PID.TID 0000.0001)                 0.000000000000000E+00
(PID.TID 0000.0001)     ;
(PID.TID 0000.0001) viscA4  =   /* Lateral biharmonic viscosity ( m^4/s ) */
(PID.TID 0000.0001)                 0.000000000000000E+00
(PID.TID 0000.0001)     ;
(PID.TID 0000.0001) viscA4Max = /* Maximum biharmonic viscosity ( m^2/s ) */
(PID.TID 0000.0001)                 1.000000000000000E+21
(PID.TID 0000.0001)     ;
(PID.TID 0000.0001) viscA4Grid = /* Grid dependent biharmonic viscosity ( non-dim. ) */
(PID.TID 0000.0001)                 0.000000000000000E+00
(PID.TID 0000.0001)     ;
(PID.TID 0000.0001) viscC4leith = /* Leith biharm viscosity factor (on grad(vort), non-dim.)*/
(PID.TID 0000.0001)                 2.000000000000000E+00
(PID.TID 0000.0001)     ;
(PID.TID 0000.0001) viscC4leithD = /* Leith biharm viscosity factor (on grad(div), non-dim.) */
(PID.TID 0000.0001)                 2.000000000000000E+00
(PID.TID 0000.0001)     ;
(PID.TID 0000.0001) viscC4Smag = /* Smagorinsky biharm viscosity factor (non-dim) */
(PID.TID 0000.0001)                 0.000000000000000E+00
(PID.TID 0000.0001)     ;
(PID.TID 0000.0001) no_slip_sides =  /* Viscous BCs: No-slip sides */
(PID.TID 0000.0001)                   T
(PID.TID 0000.0001)     ;
(PID.TID 0000.0001) sideDragFactor = /* side-drag scaling factor (non-dim) */
(PID.TID 0000.0001)                 2.000000000000000E+00
(PID.TID 0000.0001)     ;
(PID.TID 0000.0001) viscArNr = /* vertical profile of vertical viscosity ( m^2/s )*/
(PID.TID 0000.0001)   100 @  5.000000000000000E-04              /* K =  1:100 */
(PID.TID 0000.0001)     ;
(PID.TID 0000.0001) no_slip_bottom =  /* Viscous BCs: No-slip bottom */
(PID.TID 0000.0001)                   T
(PID.TID 0000.0001)     ;
(PID.TID 0000.0001) bottomVisc_pCell = /* Partial-cell in bottom Visc. BC */
(PID.TID 0000.0001)                   F
(PID.TID 0000.0001)     ;
(PID.TID 0000.0001) bottomDragLinear = /* linear bottom-drag coefficient ( m/s ) */
(PID.TID 0000.0001)                 0.000000000000000E+00
(PID.TID 0000.0001)     ;
(PID.TID 0000.0001) bottomDragQuadratic = /* quadratic bottom-drag coefficient (-) */
(PID.TID 0000.0001)                 2.000000000000000E-03
(PID.TID 0000.0001)     ;
(PID.TID 0000.0001) selectBotDragQuadr = /* select quadratic bottom drag options */
(PID.TID 0000.0001)                       0
(PID.TID 0000.0001)     ;
(PID.TID 0000.0001) diffKhT =   /* Laplacian diffusion of heat laterally ( m^2/s ) */
(PID.TID 0000.0001)                 0.000000000000000E+00
(PID.TID 0000.0001)     ;
(PID.TID 0000.0001) diffK4T =   /* Biharmonic diffusion of heat laterally ( m^4/s ) */
(PID.TID 0000.0001)                 0.000000000000000E+00
(PID.TID 0000.0001)     ;
(PID.TID 0000.0001) diffKhS =   /* Laplacian diffusion of salt laterally ( m^2/s ) */
(PID.TID 0000.0001)                 0.000000000000000E+00
(PID.TID 0000.0001)     ;
(PID.TID 0000.0001) diffK4S =   /* Biharmonic diffusion of salt laterally ( m^4/s ) */
(PID.TID 0000.0001)                 0.000000000000000E+00
(PID.TID 0000.0001)     ;
(PID.TID 0000.0001) diffKrNrT = /* vertical profile of vertical diffusion of Temp ( m^2/s )*/
(PID.TID 0000.0001)   100 @  1.000000000000000E-05              /* K =  1:100 */
(PID.TID 0000.0001)     ;
(PID.TID 0000.0001) diffKrNrS = /* vertical profile of vertical diffusion of Salt ( m^2/s )*/
(PID.TID 0000.0001)   100 @  1.000000000000000E-05              /* K =  1:100 */
(PID.TID 0000.0001)     ;
(PID.TID 0000.0001) diffKrBL79surf = /* Surface diffusion for Bryan and Lewis 79 ( m^2/s ) */
(PID.TID 0000.0001)                 0.000000000000000E+00
(PID.TID 0000.0001)     ;
(PID.TID 0000.0001) diffKrBL79deep = /* Deep diffusion for Bryan and Lewis 1979 ( m^2/s ) */
(PID.TID 0000.0001)                 0.000000000000000E+00
(PID.TID 0000.0001)     ;
(PID.TID 0000.0001) diffKrBL79scl = /* Depth scale for Bryan and Lewis 1979 ( m ) */
(PID.TID 0000.0001)                 2.000000000000000E+02
(PID.TID 0000.0001)     ;
(PID.TID 0000.0001) diffKrBL79Ho = /* Turning depth for Bryan and Lewis 1979 ( m ) */
(PID.TID 0000.0001)                -2.000000000000000E+03
(PID.TID 0000.0001)     ;
(PID.TID 0000.0001) ivdc_kappa = /* Implicit Vertical Diffusivity for Convection ( m^2/s) */
(PID.TID 0000.0001)                 0.000000000000000E+00
(PID.TID 0000.0001)     ;
(PID.TID 0000.0001) hMixCriteria=  /* Criteria for mixed-layer diagnostic */
(PID.TID 0000.0001)                -8.000000000000000E-01
(PID.TID 0000.0001)     ;
(PID.TID 0000.0001) dRhoSmall =  /* Parameter for mixed-layer diagnostic */
(PID.TID 0000.0001)                 1.000000000000000E-06
(PID.TID 0000.0001)     ;
(PID.TID 0000.0001) hMixSmooth=  /* Smoothing parameter for mixed-layer diagnostic */
(PID.TID 0000.0001)                 0.000000000000000E+00
(PID.TID 0000.0001)     ;
(PID.TID 0000.0001) eosType =  /* Type of Equation of State */
(PID.TID 0000.0001)               'JMD95Z'
(PID.TID 0000.0001)     ;
(PID.TID 0000.0001) selectP_inEOS_Zc = /* select pressure to use in EOS (0,1,2,3) */
(PID.TID 0000.0001)                       0
(PID.TID 0000.0001)     0= -g*rhoConst*z ; 1= pRef (from tRef,sRef); 2= Hyd P ; 3= Hyd+NH P
(PID.TID 0000.0001)     ;
(PID.TID 0000.0001) HeatCapacity_Cp =  /* Specific heat capacity ( J/kg/K ) */
(PID.TID 0000.0001)                 3.994000000000000E+03
(PID.TID 0000.0001)     ;
(PID.TID 0000.0001) celsius2K = /* 0 degree Celsius converted to Kelvin ( K ) */
(PID.TID 0000.0001)                 2.731500000000000E+02
(PID.TID 0000.0001)     ;
(PID.TID 0000.0001) rhoConst  = /* Reference density (Boussinesq)  ( kg/m^3 ) */
(PID.TID 0000.0001)                 1.029000000000000E+03
(PID.TID 0000.0001)     ;
(PID.TID 0000.0001) rhoFacC = /* normalized Reference density @ cell-Center (-) */
(PID.TID 0000.0001)   100 @  1.000000000000000E+00              /* K =  1:100 */
(PID.TID 0000.0001)     ;
(PID.TID 0000.0001) rhoFacF = /* normalized Reference density @ W-Interface (-) */
(PID.TID 0000.0001)   101 @  1.000000000000000E+00              /* K =  1:101 */
(PID.TID 0000.0001)     ;
(PID.TID 0000.0001) rhoConstFresh = /* Fresh-water reference density ( kg/m^3 ) */
(PID.TID 0000.0001)                 1.000000000000000E+03
(PID.TID 0000.0001)     ;
(PID.TID 0000.0001) gravity =   /* Gravitational acceleration ( m/s^2 ) */
(PID.TID 0000.0001)                 9.810000000000000E+00
(PID.TID 0000.0001)     ;
(PID.TID 0000.0001) gBaro =   /* Barotropic gravity ( m/s^2 ) */
(PID.TID 0000.0001)                 9.810000000000000E+00
(PID.TID 0000.0001)     ;
(PID.TID 0000.0001) gravFacC = /* gravity factor (vs surf.) @ cell-Center (-) */
(PID.TID 0000.0001)   100 @  1.000000000000000E+00              /* K =  1:100 */
(PID.TID 0000.0001)     ;
(PID.TID 0000.0001) gravFacF = /* gravity factor (vs surf.) @ W-Interface (-) */
(PID.TID 0000.0001)   101 @  1.000000000000000E+00              /* K =  1:101 */
(PID.TID 0000.0001)     ;
(PID.TID 0000.0001) rotationPeriod =   /* Rotation Period ( s ) */
(PID.TID 0000.0001)                 8.616400000000000E+04
(PID.TID 0000.0001)     ;
(PID.TID 0000.0001) omega =   /* Angular velocity ( rad/s ) */
(PID.TID 0000.0001)                 7.292123516990375E-05
(PID.TID 0000.0001)     ;
(PID.TID 0000.0001) f0 =   /* Reference coriolis parameter ( 1/s ) */
(PID.TID 0000.0001)                 1.000000000000000E-04
(PID.TID 0000.0001)     ;
(PID.TID 0000.0001) beta =   /* Beta ( 1/(m.s) ) */
(PID.TID 0000.0001)                 9.999999999999999E-12
(PID.TID 0000.0001)     ;
(PID.TID 0000.0001) fPrime =   /* Second coriolis parameter ( 1/s ) */
(PID.TID 0000.0001)                 0.000000000000000E+00
(PID.TID 0000.0001)     ;
(PID.TID 0000.0001) rigidLid =   /* Rigid lid on/off flag */
(PID.TID 0000.0001)                   F
(PID.TID 0000.0001)     ;
(PID.TID 0000.0001) implicitFreeSurface =   /* Implicit free surface on/off flag */
(PID.TID 0000.0001)                   T
(PID.TID 0000.0001)     ;
(PID.TID 0000.0001) freeSurfFac =   /* Implicit free surface factor */
(PID.TID 0000.0001)                 1.000000000000000E+00
(PID.TID 0000.0001)     ;
(PID.TID 0000.0001) implicSurfPress =  /* Surface Pressure implicit factor (0-1)*/
(PID.TID 0000.0001)                 1.000000000000000E+00
(PID.TID 0000.0001)     ;
(PID.TID 0000.0001) implicDiv2DFlow =  /* Barot. Flow Div. implicit factor (0-1)*/
(PID.TID 0000.0001)                 1.000000000000000E+00
(PID.TID 0000.0001)     ;
(PID.TID 0000.0001) uniformLin_PhiSurf = /* use uniform Bo_surf on/off flag*/
(PID.TID 0000.0001)                   T
(PID.TID 0000.0001)     ;
(PID.TID 0000.0001) uniformFreeSurfLev = /* free-surface level-index is uniform */
(PID.TID 0000.0001)                   T
(PID.TID 0000.0001)     ;
(PID.TID 0000.0001) hFacMin =   /* minimum partial cell factor (hFac) */
(PID.TID 0000.0001)                 2.000000000000000E-01
(PID.TID 0000.0001)     ;
(PID.TID 0000.0001) hFacMinDr = /* minimum partial cell thickness ( m) */
(PID.TID 0000.0001)                 5.000000000000000E+00
(PID.TID 0000.0001)     ;
(PID.TID 0000.0001) exactConserv =  /* Exact Volume Conservation on/off flag*/
(PID.TID 0000.0001)                   T
(PID.TID 0000.0001)     ;
(PID.TID 0000.0001) linFSConserveTr = /* Tracer correction for Lin Free Surface on/off flag*/
(PID.TID 0000.0001)                   F
(PID.TID 0000.0001)     ;
(PID.TID 0000.0001) nonlinFreeSurf = /* Non-linear Free Surf. options (-1,0,1,2,3)*/
(PID.TID 0000.0001)                       0
(PID.TID 0000.0001)      -1,0= Off ; 1,2,3= On, 2=+rescale gU,gV, 3=+update cg2d solv.
(PID.TID 0000.0001)     ;
(PID.TID 0000.0001) hFacInf =   /* lower threshold for hFac (nonlinFreeSurf only)*/
(PID.TID 0000.0001)                 2.000000000000000E-01
(PID.TID 0000.0001)     ;
(PID.TID 0000.0001) hFacSup =   /* upper threshold for hFac (nonlinFreeSurf only)*/
(PID.TID 0000.0001)                 2.000000000000000E+00
(PID.TID 0000.0001)     ;
(PID.TID 0000.0001) select_rStar = /* r* Vertical coord. options (=0 r coord.; >0 uses r*)*/
(PID.TID 0000.0001)                       0
(PID.TID 0000.0001)     ;
(PID.TID 0000.0001) useRealFreshWaterFlux = /* Real Fresh Water Flux on/off flag*/
(PID.TID 0000.0001)                   F
(PID.TID 0000.0001)     ;
(PID.TID 0000.0001) temp_EvPrRn = /* Temp. of Evap/Prec/R (UNSET=use local T)(oC)*/
(PID.TID 0000.0001)                 0.000000000000000E+00
(PID.TID 0000.0001)     ;
(PID.TID 0000.0001) salt_EvPrRn = /* Salin. of Evap/Prec/R (UNSET=use local S)(psu)*/
(PID.TID 0000.0001)                 0.000000000000000E+00
(PID.TID 0000.0001)     ;
(PID.TID 0000.0001) selectAddFluid = /* option for mass source/sink of fluid (=0: off) */
(PID.TID 0000.0001)                       0
(PID.TID 0000.0001)     ;
(PID.TID 0000.0001) temp_addMass = /* Temp. of addMass array (UNSET=use local T)(oC)*/
(PID.TID 0000.0001)                 0.000000000000000E+00
(PID.TID 0000.0001)     ;
(PID.TID 0000.0001) salt_addMass = /* Salin. of addMass array (UNSET=use local S)(psu)*/
(PID.TID 0000.0001)                 0.000000000000000E+00
(PID.TID 0000.0001)     ;
(PID.TID 0000.0001) convertFW2Salt = /* convert F.W. Flux to Salt Flux (-1=use local S)(psu)*/
(PID.TID 0000.0001)                -1.000000000000000E+00
(PID.TID 0000.0001)     ;
(PID.TID 0000.0001) use3Dsolver = /* use 3-D pressure solver on/off flag */
(PID.TID 0000.0001)                   F
(PID.TID 0000.0001)     ;
(PID.TID 0000.0001) nonHydrostatic =  /* Non-Hydrostatic on/off flag */
(PID.TID 0000.0001)                   F
(PID.TID 0000.0001)     ;
(PID.TID 0000.0001) nh_Am2 = /* Non-Hydrostatic terms scaling factor */
(PID.TID 0000.0001)                 1.000000000000000E+00
(PID.TID 0000.0001)     ;
(PID.TID 0000.0001) implicitNHPress = /* Non-Hyd Pressure implicit factor (0-1)*/
(PID.TID 0000.0001)                 1.000000000000000E+00
(PID.TID 0000.0001)     ;
(PID.TID 0000.0001) selectNHfreeSurf = /* Non-Hyd (free-)Surface option */
(PID.TID 0000.0001)                       0
(PID.TID 0000.0001)     ;
(PID.TID 0000.0001) quasiHydrostatic = /* Quasi-Hydrostatic on/off flag */
(PID.TID 0000.0001)                   F
(PID.TID 0000.0001)     ;
(PID.TID 0000.0001) calc_wVelocity = /* vertical velocity calculation on/off flag */
(PID.TID 0000.0001)                   T
(PID.TID 0000.0001)     ;
(PID.TID 0000.0001) momStepping =  /* Momentum equation on/off flag */
(PID.TID 0000.0001)                   T
(PID.TID 0000.0001)     ;
(PID.TID 0000.0001) vectorInvariantMomentum= /* Vector-Invariant Momentum on/off */
(PID.TID 0000.0001)                   T
(PID.TID 0000.0001)     ;
(PID.TID 0000.0001) momAdvection =  /* Momentum advection on/off flag */
(PID.TID 0000.0001)                   T
(PID.TID 0000.0001)     ;
(PID.TID 0000.0001) momViscosity =  /* Momentum viscosity on/off flag */
(PID.TID 0000.0001)                   T
(PID.TID 0000.0001)     ;
(PID.TID 0000.0001) momImplVertAdv= /* Momentum implicit vert. advection on/off*/
(PID.TID 0000.0001)                   F
(PID.TID 0000.0001)     ;
(PID.TID 0000.0001) implicitViscosity = /* Implicit viscosity on/off flag */
(PID.TID 0000.0001)                   T
(PID.TID 0000.0001)     ;
(PID.TID 0000.0001) selectImplicitDrag= /* Implicit bot Drag options (0,1,2)*/
(PID.TID 0000.0001)                       0
(PID.TID 0000.0001)     0= Expl. ; 1= Impl. on provis. Vel ; 2= Fully Impl (with surf.P)
(PID.TID 0000.0001)     ;
(PID.TID 0000.0001) metricTerms =  /* metric-Terms on/off flag */
(PID.TID 0000.0001)                   T
(PID.TID 0000.0001)     ;
(PID.TID 0000.0001) useNHMTerms = /* Non-Hydrostatic Metric-Terms on/off */
(PID.TID 0000.0001)                   F
(PID.TID 0000.0001)     ;
(PID.TID 0000.0001) selectCoriMap = /* Coriolis Map options (0,1,2,3)*/
(PID.TID 0000.0001)                       2
(PID.TID 0000.0001)     0= f-Plane ; 1= Beta-Plane ; 2= Spherical ; 3= read from file
(PID.TID 0000.0001)     ;
(PID.TID 0000.0001) use3dCoriolis = /* 3-D Coriolis on/off flag */
(PID.TID 0000.0001)                   F
(PID.TID 0000.0001)     ;
(PID.TID 0000.0001) useCoriolis =  /* Coriolis on/off flag */
(PID.TID 0000.0001)                   T
(PID.TID 0000.0001)     ;
(PID.TID 0000.0001) useCDscheme =  /* CD scheme on/off flag */
(PID.TID 0000.0001)                   F
(PID.TID 0000.0001)     ;
(PID.TID 0000.0001) useEnergyConservingCoriolis= /* Flx-Form Coriolis scheme flag */
(PID.TID 0000.0001)                   F
(PID.TID 0000.0001)     ;
(PID.TID 0000.0001) useJamartWetPoints= /* Coriolis WetPoints method flag */
(PID.TID 0000.0001)                   F
(PID.TID 0000.0001)     ;
(PID.TID 0000.0001) useJamartMomAdv= /* V.I Non-linear terms Jamart flag */
(PID.TID 0000.0001)                   F
(PID.TID 0000.0001)     ;
(PID.TID 0000.0001) useAbsVorticity= /* V.I Works with f+zeta in Coriolis */
(PID.TID 0000.0001)                   F
(PID.TID 0000.0001)     ;
(PID.TID 0000.0001) selectVortScheme= /* V.I Scheme selector for Vorticity-Term */
(PID.TID 0000.0001)                       0
(PID.TID 0000.0001)    = 0 : enstrophy (Shallow-Water Eq.) conserving scheme by Sadourny, JAS 75
(PID.TID 0000.0001)    = 1 : same as 0 with modified hFac
(PID.TID 0000.0001)    = 2 : energy conserving scheme (used by Sadourny in JAS 75 paper)
(PID.TID 0000.0001)    = 3 : energy (general) and enstrophy (2D, nonDiv.) conserving scheme
(PID.TID 0000.0001)          from Sadourny (Burridge & Haseler, ECMWF Rep.4, 1977)
(PID.TID 0000.0001)     ;
(PID.TID 0000.0001) upwindVorticity= /* V.I Upwind bias vorticity flag */
(PID.TID 0000.0001)                   F
(PID.TID 0000.0001)     ;
(PID.TID 0000.0001) highOrderVorticity= /* V.I High order vort. advect. flag */
(PID.TID 0000.0001)                   T
(PID.TID 0000.0001)     ;
(PID.TID 0000.0001) upwindShear= /* V.I Upwind vertical Shear advection flag */
(PID.TID 0000.0001)                   F
(PID.TID 0000.0001)     ;
(PID.TID 0000.0001) selectKEscheme= /* V.I Kinetic Energy scheme selector */
(PID.TID 0000.0001)                       0
(PID.TID 0000.0001)     ;
(PID.TID 0000.0001) momForcing =  /* Momentum forcing on/off flag */
(PID.TID 0000.0001)                   T
(PID.TID 0000.0001)     ;
(PID.TID 0000.0001) momTidalForcing = /* Momentum Tidal forcing on/off flag */
(PID.TID 0000.0001)                   T
(PID.TID 0000.0001)     ;
(PID.TID 0000.0001) momPressureForcing =  /* Momentum pressure term on/off flag */
(PID.TID 0000.0001)                   T
(PID.TID 0000.0001)     ;
(PID.TID 0000.0001) implicitIntGravWave= /* Implicit Internal Gravity Wave flag */
(PID.TID 0000.0001)                   F
(PID.TID 0000.0001)     ;
(PID.TID 0000.0001) staggerTimeStep =    /* Stagger time stepping on/off flag */
(PID.TID 0000.0001)                   T
(PID.TID 0000.0001)     ;
(PID.TID 0000.0001) doResetHFactors = /* reset thickness factors @ each time-step */
(PID.TID 0000.0001)                   F
(PID.TID 0000.0001)     ;
(PID.TID 0000.0001) multiDimAdvection =  /* enable/disable Multi-Dim Advection */
(PID.TID 0000.0001)                   T
(PID.TID 0000.0001)     ;
(PID.TID 0000.0001) useMultiDimAdvec =   /* Multi-Dim Advection is/is-not used */
(PID.TID 0000.0001)                   T
(PID.TID 0000.0001)     ;
(PID.TID 0000.0001) implicitDiffusion = /* Implicit Diffusion on/off flag */
(PID.TID 0000.0001)                   T
(PID.TID 0000.0001)     ;
(PID.TID 0000.0001) tempStepping =  /* Temperature equation on/off flag */
(PID.TID 0000.0001)                   T
(PID.TID 0000.0001)     ;
(PID.TID 0000.0001) tempAdvection = /* Temperature advection on/off flag */
(PID.TID 0000.0001)                   T
(PID.TID 0000.0001)     ;
(PID.TID 0000.0001) tempImplVertAdv = /* Temp. implicit vert. advection on/off */
(PID.TID 0000.0001)                   F
(PID.TID 0000.0001)     ;
(PID.TID 0000.0001) tempForcing  =  /* Temperature forcing on/off flag */
(PID.TID 0000.0001)                   T
(PID.TID 0000.0001)     ;
(PID.TID 0000.0001) doThetaClimRelax = /* apply SST relaxation on/off flag */
(PID.TID 0000.0001)                   F
(PID.TID 0000.0001)     ;
(PID.TID 0000.0001) tempIsActiveTr = /* Temp. is a dynamically Active Tracer */
(PID.TID 0000.0001)                   T
(PID.TID 0000.0001)     ;
(PID.TID 0000.0001) saltStepping =  /* Salinity equation on/off flag */
(PID.TID 0000.0001)                   T
(PID.TID 0000.0001)     ;
(PID.TID 0000.0001) saltAdvection = /* Salinity advection on/off flag */
(PID.TID 0000.0001)                   T
(PID.TID 0000.0001)     ;
(PID.TID 0000.0001) saltImplVertAdv = /* Sali. implicit vert. advection on/off */
(PID.TID 0000.0001)                   F
(PID.TID 0000.0001)     ;
(PID.TID 0000.0001) saltForcing  =  /* Salinity forcing on/off flag */
(PID.TID 0000.0001)                   T
(PID.TID 0000.0001)     ;
(PID.TID 0000.0001) doSaltClimRelax = /* apply SSS relaxation on/off flag */
(PID.TID 0000.0001)                   F
(PID.TID 0000.0001)     ;
(PID.TID 0000.0001) saltIsActiveTr = /* Salt  is a dynamically Active Tracer */
(PID.TID 0000.0001)                   T
(PID.TID 0000.0001)     ;
(PID.TID 0000.0001)  readBinaryPrec = /* Precision used for reading binary files */
(PID.TID 0000.0001)                      32
(PID.TID 0000.0001)     ;
(PID.TID 0000.0001) writeBinaryPrec = /* Precision used for writing binary files */
(PID.TID 0000.0001)                      32
(PID.TID 0000.0001)     ;
(PID.TID 0000.0001)  rwSuffixType =   /* select format of mds file suffix */
(PID.TID 0000.0001)                       0
(PID.TID 0000.0001)    = 0 : myIter (I10.10) ;   = 1 : 100*myTime (100th sec) ;
(PID.TID 0000.0001)    = 2 : myTime (seconds);   = 3 : myTime/360 (10th of hr);
(PID.TID 0000.0001)    = 4 : myTime/3600 (hours)
(PID.TID 0000.0001)     ;
(PID.TID 0000.0001)  globalFiles = /* write "global" (=not per tile) files */
(PID.TID 0000.0001)                   T
(PID.TID 0000.0001)     ;
(PID.TID 0000.0001)  useSingleCpuIO = /* only master MPI process does I/O */
(PID.TID 0000.0001)                   T
(PID.TID 0000.0001)     ;
(PID.TID 0000.0001)  useSingleCpuInput = /* only master process reads input */
(PID.TID 0000.0001)                   T
(PID.TID 0000.0001)     ;
(PID.TID 0000.0001) /* debLev[*]  : level of debug & auxiliary message printing */
(PID.TID 0000.0001) debLevZero =  0 ; /* level of disabled aux. msg printing */
(PID.TID 0000.0001)    debLevA =  1 ; /* level of minimum  aux. msg printing */
(PID.TID 0000.0001)    debLevB =  2 ; /* level of low aux. print (report read-file opening)*/
(PID.TID 0000.0001)    debLevC =  3 ; /* level of moderate debug prt (most pkgs debug msg) */
(PID.TID 0000.0001)    debLevD =  4 ; /* level of enhanced debug prt (add DEBUG_STATS prt) */
(PID.TID 0000.0001)    debLevE =  5 ; /* level of extensive debug printing */
(PID.TID 0000.0001) debugLevel =  /* select debug printing level */
(PID.TID 0000.0001)                       2
(PID.TID 0000.0001)     ;
(PID.TID 0000.0001)  plotLevel =  /* select PLOT_FIELD printing level */
(PID.TID 0000.0001)                       2
(PID.TID 0000.0001)     ;
(PID.TID 0000.0001) //
(PID.TID 0000.0001) // Elliptic solver(s) paramters ( PARM02 in namelist )
(PID.TID 0000.0001) //
(PID.TID 0000.0001) cg2dMaxIters =   /* Upper limit on 2d con. grad iterations  */
(PID.TID 0000.0001)                    1000
(PID.TID 0000.0001)     ;
(PID.TID 0000.0001) cg2dChkResFreq =   /* 2d con. grad convergence test frequency */
(PID.TID 0000.0001)                       1
(PID.TID 0000.0001)     ;
(PID.TID 0000.0001) cg2dUseMinResSol= /* use cg2d last-iter(=0) / min-resid.(=1) solution */
(PID.TID 0000.0001)                       0
(PID.TID 0000.0001)     ;
(PID.TID 0000.0001) cg2dTargetResidual =   /* 2d con. grad target residual  */
(PID.TID 0000.0001)                 1.000000000000000E-07
(PID.TID 0000.0001)     ;
(PID.TID 0000.0001) cg2dTargetResWunit =   /* CG2d target residual [W units] */
(PID.TID 0000.0001)                 1.000000000000000E-18
(PID.TID 0000.0001)     ;
(PID.TID 0000.0001) cg2dPreCondFreq =   /* Freq. for updating cg2d preconditioner */
(PID.TID 0000.0001)                       1
(PID.TID 0000.0001)     ;
(PID.TID 0000.0001) useSRCGSolver =  /* use single reduction CG solver(s) */
(PID.TID 0000.0001)                   F
(PID.TID 0000.0001)     ;
(PID.TID 0000.0001) printResidualFreq = /* Freq. for printing CG residual */
(PID.TID 0000.0001)                       0
(PID.TID 0000.0001)     ;
(PID.TID 0000.0001) //
(PID.TID 0000.0001) // Time stepping paramters ( PARM03 in namelist )
(PID.TID 0000.0001) //
(PID.TID 0000.0001) deltaTMom =   /* Momentum equation timestep ( s ) */
(PID.TID 0000.0001)                 2.400000000000000E+02
(PID.TID 0000.0001)     ;
(PID.TID 0000.0001) deltaTFreeSurf = /* FreeSurface equation timestep ( s ) */
(PID.TID 0000.0001)                 2.400000000000000E+02
(PID.TID 0000.0001)     ;
(PID.TID 0000.0001) dTtracerLev =  /* Tracer equation timestep ( s ) */
(PID.TID 0000.0001)   100 @  2.400000000000000E+02              /* K =  1:100 */
(PID.TID 0000.0001)     ;
(PID.TID 0000.0001) deltaTClock  =   /* Model clock timestep ( s ) */
(PID.TID 0000.0001)                 2.400000000000000E+02
(PID.TID 0000.0001)     ;
(PID.TID 0000.0001) cAdjFreq =   /* Convective adjustment interval ( s ) */
(PID.TID 0000.0001)                 0.000000000000000E+00
(PID.TID 0000.0001)     ;
(PID.TID 0000.0001) momForcingOutAB = /* =1: take Momentum Forcing out of Adams-Bash. stepping */
(PID.TID 0000.0001)                       1
(PID.TID 0000.0001)     ;
(PID.TID 0000.0001) tracForcingOutAB = /* =1: take T,S,pTr Forcing out of Adams-Bash. stepping */
(PID.TID 0000.0001)                       1
(PID.TID 0000.0001)     ;
(PID.TID 0000.0001) momDissip_In_AB = /* put Dissipation Tendency in Adams-Bash. stepping */
(PID.TID 0000.0001)                   F
(PID.TID 0000.0001)     ;
(PID.TID 0000.0001) doAB_onGtGs = /* apply AB on Tendencies (rather than on T,S)*/
(PID.TID 0000.0001)                   T
(PID.TID 0000.0001)     ;
(PID.TID 0000.0001) abEps =   /* Adams-Bashforth-2 stabilizing weight */
(PID.TID 0000.0001)                 1.000000000000000E-01
(PID.TID 0000.0001)     ;
(PID.TID 0000.0001) applyExchUV_early = /* Apply EXCH to U,V earlier in time-step */
(PID.TID 0000.0001)                   F
(PID.TID 0000.0001)     ;
(PID.TID 0000.0001) pickupStrictlyMatch= /* stop if pickup do not strictly match */
(PID.TID 0000.0001)                   F
(PID.TID 0000.0001)     ;
(PID.TID 0000.0001) nIter0   =   /* Run starting timestep number */
(PID.TID 0000.0001)                       0
(PID.TID 0000.0001)     ;
(PID.TID 0000.0001) nTimeSteps = /* Number of timesteps */
(PID.TID 0000.0001)                      15
(PID.TID 0000.0001)     ;
(PID.TID 0000.0001) nEndIter =   /* Run ending timestep number */
(PID.TID 0000.0001)                      15
(PID.TID 0000.0001)     ;
(PID.TID 0000.0001) baseTime =   /* Model base time ( s ) */
(PID.TID 0000.0001)                 0.000000000000000E+00
(PID.TID 0000.0001)     ;
(PID.TID 0000.0001) startTime =  /* Run start time ( s ) */
(PID.TID 0000.0001)                 0.000000000000000E+00
(PID.TID 0000.0001)     ;
(PID.TID 0000.0001) endTime  =   /* Integration ending time ( s ) */
(PID.TID 0000.0001)                 3.600000000000000E+03
(PID.TID 0000.0001)     ;
(PID.TID 0000.0001) pChkPtFreq = /* Permanent restart/pickup file interval ( s ) */
(PID.TID 0000.0001)                 8.640000000000000E+05
(PID.TID 0000.0001)     ;
(PID.TID 0000.0001) chkPtFreq  = /* Rolling restart/pickup file interval ( s ) */
(PID.TID 0000.0001)                 0.000000000000000E+00
(PID.TID 0000.0001)     ;
(PID.TID 0000.0001) pickup_write_mdsio =   /* Model IO flag. */
(PID.TID 0000.0001)                   T
(PID.TID 0000.0001)     ;
(PID.TID 0000.0001) pickup_read_mdsio =   /* Model IO flag. */
(PID.TID 0000.0001)                   T
(PID.TID 0000.0001)     ;
(PID.TID 0000.0001) writePickupAtEnd =   /* Model IO flag. */
(PID.TID 0000.0001)                   T
(PID.TID 0000.0001)     ;
(PID.TID 0000.0001) dumpFreq =   /* Model state write out interval ( s ). */
(PID.TID 0000.0001)                 0.000000000000000E+00
(PID.TID 0000.0001)     ;
(PID.TID 0000.0001) dumpInitAndLast= /* write out Initial & Last iter. model state */
(PID.TID 0000.0001)                   F
(PID.TID 0000.0001)     ;
(PID.TID 0000.0001) snapshot_mdsio =   /* Model IO flag. */
(PID.TID 0000.0001)                   T
(PID.TID 0000.0001)     ;
(PID.TID 0000.0001) monitorFreq =   /* Monitor output interval ( s ). */
(PID.TID 0000.0001)                 2.400000000000000E+02
(PID.TID 0000.0001)     ;
(PID.TID 0000.0001) monitorSelect = /* select group of variables to monitor */
(PID.TID 0000.0001)                       3
(PID.TID 0000.0001)     ;
(PID.TID 0000.0001) monitor_stdio =   /* Model IO flag. */
(PID.TID 0000.0001)                   T
(PID.TID 0000.0001)     ;
(PID.TID 0000.0001) externForcingPeriod =   /* forcing period (s) */
(PID.TID 0000.0001)                 0.000000000000000E+00
(PID.TID 0000.0001)     ;
(PID.TID 0000.0001) externForcingCycle =   /* period of the cyle (s). */
(PID.TID 0000.0001)                 0.000000000000000E+00
(PID.TID 0000.0001)     ;
(PID.TID 0000.0001) tauThetaClimRelax =   /* relaxation time scale (s) */
(PID.TID 0000.0001)                 0.000000000000000E+00
(PID.TID 0000.0001)     ;
(PID.TID 0000.0001) tauSaltClimRelax =   /* relaxation time scale (s) */
(PID.TID 0000.0001)                 0.000000000000000E+00
(PID.TID 0000.0001)     ;
(PID.TID 0000.0001) latBandClimRelax =   /* max. Lat. where relaxation */
(PID.TID 0000.0001)                 1.800000000000000E+02
(PID.TID 0000.0001)     ;
(PID.TID 0000.0001) //
(PID.TID 0000.0001) // Gridding paramters ( PARM04 in namelist )
(PID.TID 0000.0001) //
(PID.TID 0000.0001) usingCartesianGrid = /* Cartesian coordinates flag ( True/False ) */
(PID.TID 0000.0001)                   F
(PID.TID 0000.0001)     ;
(PID.TID 0000.0001) usingCylindricalGrid = /* Cylindrical coordinates flag ( True/False ) */
(PID.TID 0000.0001)                   F
(PID.TID 0000.0001)     ;
(PID.TID 0000.0001) usingSphericalPolarGrid = /* Spherical coordinates flag ( True/False ) */
(PID.TID 0000.0001)                   T
(PID.TID 0000.0001)     ;
(PID.TID 0000.0001) usingCurvilinearGrid = /* Curvilinear coordinates flag ( True/False ) */
(PID.TID 0000.0001)                   F
(PID.TID 0000.0001)     ;
(PID.TID 0000.0001) useMin4hFacEdges = /* set hFacW,S as minimum of adjacent hFacC factor */
(PID.TID 0000.0001)                   F
(PID.TID 0000.0001)     ;
(PID.TID 0000.0001) interViscAr_pCell = /* account for partial-cell in interior vert. viscosity */
(PID.TID 0000.0001)                   F
(PID.TID 0000.0001)     ;
(PID.TID 0000.0001) interDiffKr_pCell = /* account for partial-cell in interior vert. diffusion */
(PID.TID 0000.0001)                   F
(PID.TID 0000.0001)     ;
(PID.TID 0000.0001) pCellMix_select = /* option to enhance mixing near surface & bottom */
(PID.TID 0000.0001)                       0
(PID.TID 0000.0001)     ;
(PID.TID 0000.0001) selectSigmaCoord = /* Hybrid-Sigma Vert. Coordinate option */
(PID.TID 0000.0001)                       0
(PID.TID 0000.0001)     ;
(PID.TID 0000.0001) rSigmaBnd = /* r/sigma transition ( units of r ==  m ) */
(PID.TID 0000.0001)                 1.234567000000000E+05
(PID.TID 0000.0001)     ;
(PID.TID 0000.0001) rkSign =   /* index orientation relative to vertical coordinate */
(PID.TID 0000.0001)                -1.000000000000000E+00
(PID.TID 0000.0001)     ;
(PID.TID 0000.0001) gravitySign = /* gravity orientation relative to vertical coordinate */
(PID.TID 0000.0001)                -1.000000000000000E+00
(PID.TID 0000.0001)     ;
(PID.TID 0000.0001) seaLev_Z =  /* reference height of sea-level [m] */
(PID.TID 0000.0001)                 0.000000000000000E+00
(PID.TID 0000.0001)     ;
(PID.TID 0000.0001) top_Pres =  /* reference pressure at the top [Pa] */
(PID.TID 0000.0001)                 0.000000000000000E+00
(PID.TID 0000.0001)     ;
(PID.TID 0000.0001) mass2rUnit = /* convert mass per unit area [kg/m2] to r-units [m] */
(PID.TID 0000.0001)                 9.718172983479105E-04
(PID.TID 0000.0001)     ;
(PID.TID 0000.0001) rUnit2mass = /* convert r-units [m] to mass per unit area [kg/m2] */
(PID.TID 0000.0001)                 1.029000000000000E+03
(PID.TID 0000.0001)     ;
(PID.TID 0000.0001) drC =   /* C spacing ( units of r ) */
(PID.TID 0000.0001)                 2.500000000000000E+00,      /* K =  1 */
(PID.TID 0000.0001)    14 @  5.000000000000000E+00,             /* K =  2: 15 */
(PID.TID 0000.0001)                 5.005000000000000E+00,      /* K = 16 */
(PID.TID 0000.0001)                 5.010000000000000E+00,      /* K = 17 */
(PID.TID 0000.0001)                 5.015000000000000E+00,      /* K = 18 */
(PID.TID 0000.0001)                 5.029999999999999E+00,      /* K = 19 */
(PID.TID 0000.0001)                 5.055000000000000E+00,      /* K = 20 */
(PID.TID 0000.0001)                 5.095000000000001E+00,      /* K = 21 */
(PID.TID 0000.0001)                 5.160000000000000E+00,      /* K = 22 */
(PID.TID 0000.0001)                 5.255000000000000E+00,      /* K = 23 */
(PID.TID 0000.0001)                 5.400000000000000E+00,      /* K = 24 */
(PID.TID 0000.0001)                 5.605000000000000E+00,      /* K = 25 */
(PID.TID 0000.0001)                 5.880000000000000E+00,      /* K = 26 */
(PID.TID 0000.0001)                 6.245000000000000E+00,      /* K = 27 */
(PID.TID 0000.0001)                 6.710000000000000E+00,      /* K = 28 */
(PID.TID 0000.0001)                 7.295000000000000E+00,      /* K = 29 */
(PID.TID 0000.0001)                 8.020000000000000E+00,      /* K = 30 */
(PID.TID 0000.0001)                 8.890000000000001E+00,      /* K = 31 */
(PID.TID 0000.0001)                 9.910000000000000E+00,      /* K = 32 */
(PID.TID 0000.0001)                 1.109000000000000E+01,      /* K = 33 */
(PID.TID 0000.0001)                 1.242500000000000E+01,      /* K = 34 */
(PID.TID 0000.0001)                 1.391500000000000E+01,      /* K = 35 */
(PID.TID 0000.0001)                 1.555000000000000E+01,      /* K = 36 */
(PID.TID 0000.0001)                 1.732000000000000E+01,      /* K = 37 */
(PID.TID 0000.0001)                 1.921000000000000E+01,      /* K = 38 */
(PID.TID 0000.0001)                 2.119500000000000E+01,      /* K = 39 */
(PID.TID 0000.0001)                 2.325000000000000E+01,      /* K = 40 */
(PID.TID 0000.0001)                 2.536000000000000E+01,      /* K = 41 */
(PID.TID 0000.0001)                 2.750000000000000E+01,      /* K = 42 */
(PID.TID 0000.0001)                 2.964000000000000E+01,      /* K = 43 */
(PID.TID 0000.0001)                 3.175000000000000E+01,      /* K = 44 */
(PID.TID 0000.0001)                 3.380500000000000E+01,      /* K = 45 */
(PID.TID 0000.0001)                 3.579000000000000E+01,      /* K = 46 */
(PID.TID 0000.0001)                 3.768000000000000E+01,      /* K = 47 */
(PID.TID 0000.0001)                 3.945000000000000E+01,      /* K = 48 */
(PID.TID 0000.0001)                 4.108499999999999E+01,      /* K = 49 */
(PID.TID 0000.0001)                 4.257500000000000E+01,      /* K = 50 */
(PID.TID 0000.0001)                 4.391000000000000E+01,      /* K = 51 */
(PID.TID 0000.0001)                 4.509000000000000E+01,      /* K = 52 */
(PID.TID 0000.0001)                 4.611000000000000E+01,      /* K = 53 */
(PID.TID 0000.0001)                 4.698000000000000E+01,      /* K = 54 */
(PID.TID 0000.0001)                 4.770500000000000E+01,      /* K = 55 */
(PID.TID 0000.0001)                 4.829000000000000E+01,      /* K = 56 */
(PID.TID 0000.0001)                 4.875500000000000E+01,      /* K = 57 */
(PID.TID 0000.0001)                 4.912500000000000E+01,      /* K = 58 */
(PID.TID 0000.0001)                 4.941000000000000E+01,      /* K = 59 */
(PID.TID 0000.0001)                 4.962500000000000E+01,      /* K = 60 */
(PID.TID 0000.0001)                 4.981000000000000E+01,      /* K = 61 */
(PID.TID 0000.0001)                 5.000500000000000E+01,      /* K = 62 */
(PID.TID 0000.0001)                 5.026000000000000E+01,      /* K = 63 */
(PID.TID 0000.0001)                 5.066500000000000E+01,      /* K = 64 */
(PID.TID 0000.0001)                 5.130500000000000E+01,      /* K = 65 */
(PID.TID 0000.0001)                 5.228000000000000E+01,      /* K = 66 */
(PID.TID 0000.0001)                 5.370500000000000E+01,      /* K = 67 */
(PID.TID 0000.0001)                 5.566500000000000E+01,      /* K = 68 */
(PID.TID 0000.0001)                 5.823000000000000E+01,      /* K = 69 */
(PID.TID 0000.0001)                 6.141500000000000E+01,      /* K = 70 */
(PID.TID 0000.0001)                 6.521000000000001E+01,      /* K = 71 */
(PID.TID 0000.0001)                 6.954500000000000E+01,      /* K = 72 */
(PID.TID 0000.0001)                 7.433000000000000E+01,      /* K = 73 */
(PID.TID 0000.0001)                 7.947000000000000E+01,      /* K = 74 */
(PID.TID 0000.0001)                 8.486000000000000E+01,      /* K = 75 */
(PID.TID 0000.0001)                 9.041499999999999E+01,      /* K = 76 */
(PID.TID 0000.0001)                 9.606500000000000E+01,      /* K = 77 */
(PID.TID 0000.0001)                 1.017750000000000E+02,      /* K = 78 */
(PID.TID 0000.0001)                 1.075100000000000E+02,      /* K = 79 */
(PID.TID 0000.0001)                 1.132500000000000E+02,      /* K = 80 */
(PID.TID 0000.0001)                 1.189950000000000E+02,      /* K = 81 */
(PID.TID 0000.0001)                 1.247500000000000E+02,      /* K = 82 */
(PID.TID 0000.0001)                 1.305050000000000E+02,      /* K = 83 */
(PID.TID 0000.0001)                 1.362500000000000E+02,      /* K = 84 */
(PID.TID 0000.0001)                 1.419950000000000E+02,      /* K = 85 */
(PID.TID 0000.0001)                 1.477500000000000E+02,      /* K = 86 */
(PID.TID 0000.0001)                 1.535050000000000E+02,      /* K = 87 */
(PID.TID 0000.0001)                 1.592500000000000E+02,      /* K = 88 */
(PID.TID 0000.0001)                 1.649950000000000E+02,      /* K = 89 */
(PID.TID 0000.0001)                 1.707500000000000E+02,      /* K = 90 */
(PID.TID 0000.0001)                 1.765050000000000E+02,      /* K = 91 */
(PID.TID 0000.0001)                 1.822500000000000E+02,      /* K = 92 */
(PID.TID 0000.0001)                 1.879950000000000E+02,      /* K = 93 */
(PID.TID 0000.0001)                 1.937500000000000E+02,      /* K = 94 */
(PID.TID 0000.0001)                 1.995050000000000E+02,      /* K = 95 */
(PID.TID 0000.0001)                 2.052500000000000E+02,      /* K = 96 */
(PID.TID 0000.0001)                 2.109950000000000E+02,      /* K = 97 */
(PID.TID 0000.0001)                 2.167500000000000E+02,      /* K = 98 */
(PID.TID 0000.0001)                 2.225050000000000E+02,      /* K = 99 */
(PID.TID 0000.0001)                 2.282500000000000E+02,      /* K =100 */
(PID.TID 0000.0001)                 1.155600000000000E+02       /* K =101 */
(PID.TID 0000.0001)     ;
(PID.TID 0000.0001) drF =   /* W spacing ( units of r ) */
(PID.TID 0000.0001)    15 @  5.000000000000000E+00,             /* K =  1: 15 */
(PID.TID 0000.0001)     2 @  5.010000000000000E+00,             /* K = 16: 17 */
(PID.TID 0000.0001)                 5.020000000000000E+00,      /* K = 18 */
(PID.TID 0000.0001)                 5.040000000000000E+00,      /* K = 19 */
(PID.TID 0000.0001)                 5.070000000000000E+00,      /* K = 20 */
(PID.TID 0000.0001)                 5.120000000000000E+00,      /* K = 21 */
(PID.TID 0000.0001)                 5.200000000000000E+00,      /* K = 22 */
(PID.TID 0000.0001)                 5.310000000000000E+00,      /* K = 23 */
(PID.TID 0000.0001)                 5.490000000000000E+00,      /* K = 24 */
(PID.TID 0000.0001)                 5.720000000000000E+00,      /* K = 25 */
(PID.TID 0000.0001)                 6.040000000000000E+00,      /* K = 26 */
(PID.TID 0000.0001)                 6.450000000000000E+00,      /* K = 27 */
(PID.TID 0000.0001)                 6.970000000000000E+00,      /* K = 28 */
(PID.TID 0000.0001)                 7.620000000000000E+00,      /* K = 29 */
(PID.TID 0000.0001)                 8.420000000000000E+00,      /* K = 30 */
(PID.TID 0000.0001)                 9.359999999999999E+00,      /* K = 31 */
(PID.TID 0000.0001)                 1.046000000000000E+01,      /* K = 32 */
(PID.TID 0000.0001)                 1.172000000000000E+01,      /* K = 33 */
(PID.TID 0000.0001)                 1.313000000000000E+01,      /* K = 34 */
(PID.TID 0000.0001)                 1.470000000000000E+01,      /* K = 35 */
(PID.TID 0000.0001)                 1.640000000000000E+01,      /* K = 36 */
(PID.TID 0000.0001)                 1.824000000000000E+01,      /* K = 37 */
(PID.TID 0000.0001)                 2.018000000000000E+01,      /* K = 38 */
(PID.TID 0000.0001)                 2.221000000000000E+01,      /* K = 39 */
(PID.TID 0000.0001)                 2.429000000000000E+01,      /* K = 40 */
(PID.TID 0000.0001)                 2.643000000000000E+01,      /* K = 41 */
(PID.TID 0000.0001)                 2.857000000000000E+01,      /* K = 42 */
(PID.TID 0000.0001)                 3.071000000000000E+01,      /* K = 43 */
(PID.TID 0000.0001)                 3.279000000000000E+01,      /* K = 44 */
(PID.TID 0000.0001)                 3.482000000000000E+01,      /* K = 45 */
(PID.TID 0000.0001)                 3.676000000000000E+01,      /* K = 46 */
(PID.TID 0000.0001)                 3.860000000000000E+01,      /* K = 47 */
(PID.TID 0000.0001)                 4.030000000000000E+01,      /* K = 48 */
(PID.TID 0000.0001)                 4.187000000000000E+01,      /* K = 49 */
(PID.TID 0000.0001)                 4.328000000000000E+01,      /* K = 50 */
(PID.TID 0000.0001)                 4.454000000000000E+01,      /* K = 51 */
(PID.TID 0000.0001)                 4.564000000000000E+01,      /* K = 52 */
(PID.TID 0000.0001)                 4.658000000000000E+01,      /* K = 53 */
(PID.TID 0000.0001)                 4.738000000000000E+01,      /* K = 54 */
(PID.TID 0000.0001)                 4.803000000000000E+01,      /* K = 55 */
(PID.TID 0000.0001)                 4.855000000000000E+01,      /* K = 56 */
(PID.TID 0000.0001)                 4.896000000000000E+01,      /* K = 57 */
(PID.TID 0000.0001)                 4.929000000000000E+01,      /* K = 58 */
(PID.TID 0000.0001)                 4.953000000000000E+01,      /* K = 59 */
(PID.TID 0000.0001)                 4.972000000000000E+01,      /* K = 60 */
(PID.TID 0000.0001)                 4.990000000000000E+01,      /* K = 61 */
(PID.TID 0000.0001)                 5.011000000000000E+01,      /* K = 62 */
(PID.TID 0000.0001)                 5.041000000000000E+01,      /* K = 63 */
(PID.TID 0000.0001)                 5.092000000000000E+01,      /* K = 64 */
(PID.TID 0000.0001)                 5.169000000000000E+01,      /* K = 65 */
(PID.TID 0000.0001)                 5.287000000000000E+01,      /* K = 66 */
(PID.TID 0000.0001)                 5.454000000000000E+01,      /* K = 67 */
(PID.TID 0000.0001)                 5.679000000000000E+01,      /* K = 68 */
(PID.TID 0000.0001)                 5.967000000000000E+01,      /* K = 69 */
(PID.TID 0000.0001)                 6.316000000000000E+01,      /* K = 70 */
(PID.TID 0000.0001)                 6.726000000000001E+01,      /* K = 71 */
(PID.TID 0000.0001)                 7.183000000000000E+01,      /* K = 72 */
(PID.TID 0000.0001)                 7.683000000000000E+01,      /* K = 73 */
(PID.TID 0000.0001)                 8.211000000000000E+01,      /* K = 74 */
(PID.TID 0000.0001)                 8.761000000000000E+01,      /* K = 75 */
(PID.TID 0000.0001)                 9.322000000000000E+01,      /* K = 76 */
(PID.TID 0000.0001)                 9.891000000000000E+01,      /* K = 77 */
(PID.TID 0000.0001)                 1.046400000000000E+02,      /* K = 78 */
(PID.TID 0000.0001)                 1.103800000000000E+02,      /* K = 79 */
(PID.TID 0000.0001)                 1.161200000000000E+02,      /* K = 80 */
(PID.TID 0000.0001)                 1.218700000000000E+02,      /* K = 81 */
(PID.TID 0000.0001)                 1.276300000000000E+02,      /* K = 82 */
(PID.TID 0000.0001)                 1.333800000000000E+02,      /* K = 83 */
(PID.TID 0000.0001)                 1.391200000000000E+02,      /* K = 84 */
(PID.TID 0000.0001)                 1.448700000000000E+02,      /* K = 85 */
(PID.TID 0000.0001)                 1.506300000000000E+02,      /* K = 86 */
(PID.TID 0000.0001)                 1.563800000000000E+02,      /* K = 87 */
(PID.TID 0000.0001)                 1.621200000000000E+02,      /* K = 88 */
(PID.TID 0000.0001)                 1.678700000000000E+02,      /* K = 89 */
(PID.TID 0000.0001)                 1.736300000000000E+02,      /* K = 90 */
(PID.TID 0000.0001)                 1.793800000000000E+02,      /* K = 91 */
(PID.TID 0000.0001)                 1.851200000000000E+02,      /* K = 92 */
(PID.TID 0000.0001)                 1.908700000000000E+02,      /* K = 93 */
(PID.TID 0000.0001)                 1.966300000000000E+02,      /* K = 94 */
(PID.TID 0000.0001)                 2.023800000000000E+02,      /* K = 95 */
(PID.TID 0000.0001)                 2.081200000000000E+02,      /* K = 96 */
(PID.TID 0000.0001)                 2.138700000000000E+02,      /* K = 97 */
(PID.TID 0000.0001)                 2.196300000000000E+02,      /* K = 98 */
(PID.TID 0000.0001)                 2.253800000000000E+02,      /* K = 99 */
(PID.TID 0000.0001)                 2.311200000000000E+02       /* K =100 */
(PID.TID 0000.0001)     ;
(PID.TID 0000.0001) delX = /* U spacing ( m - cartesian, degrees - spherical ) */
(PID.TID 0000.0001)  1815 @  4.166666666666700E-02              /* I =   1:1815 */
(PID.TID 0000.0001)     ;
(PID.TID 0000.0001) delY = /* V spacing ( m - cartesian, degrees - spherical ) */
(PID.TID 0000.0001)                 3.417015075683594E-02,      /* J =  1 */
(PID.TID 0000.0001)                 3.416061401367188E-02,      /* J =  2 */
(PID.TID 0000.0001)                 3.415107727050781E-02,      /* J =  3 */
(PID.TID 0000.0001)      . . .
(PID.TID 0000.0001)                 3.279495239257812E-02,      /* J =131 */
(PID.TID 0000.0001)                 3.278350830078125E-02,      /* J =132 */
(PID.TID 0000.0001)                 3.277397155761719E-02,      /* J =133 */
(PID.TID 0000.0001)                 3.276252746582031E-02,      /* J =134 */
(PID.TID 0000.0001)                 3.275299072265625E-02,      /* J =135 */
(PID.TID 0000.0001)                 3.273963928222656E-02,      /* J =136 */
(PID.TID 0000.0001)      . . .
(PID.TID 0000.0001)                 3.129959106445312E-02,      /* J =264 */
(PID.TID 0000.0001)                 3.128814697265625E-02,      /* J =265 */
(PID.TID 0000.0001)                 3.127288818359375E-02,      /* J =266 */
(PID.TID 0000.0001)                 3.126525878906250E-02,      /* J =267 */
(PID.TID 0000.0001)                 3.125000000000000E-02,      /* J =268 */
(PID.TID 0000.0001)                 3.124237060546875E-02,      /* J =269 */
(PID.TID 0000.0001)      . . .
(PID.TID 0000.0001)                 2.974700927734375E-02,      /* J =397 */
(PID.TID 0000.0001)                 2.973175048828125E-02,      /* J =398 */
(PID.TID 0000.0001)                 2.971649169921875E-02,      /* J =399 */
(PID.TID 0000.0001)                 2.970886230468750E-02,      /* J =400 */
(PID.TID 0000.0001)                 2.969741821289062E-02,      /* J =401 */
(PID.TID 0000.0001)                 2.968597412109375E-02,      /* J =402 */
(PID.TID 0000.0001)      . . .
(PID.TID 0000.0001)                 2.816009521484375E-02,      /* J =530 */
(PID.TID 0000.0001)                 2.815246582031250E-02,      /* J =531 */
(PID.TID 0000.0001)                 2.813720703125000E-02       /* J =532 */
(PID.TID 0000.0001)     ;
(PID.TID 0000.0001) xgOrigin = /* X-axis origin of West  edge (cartesian: m, lat-lon: deg) */
(PID.TID 0000.0001)                -8.158333587646484E+01
(PID.TID 0000.0001)     ;
(PID.TID 0000.0001) ygOrigin = /* Y-axis origin of South edge (cartesian: m, lat-lon: deg) */
(PID.TID 0000.0001)                 2.685529327392578E+01
(PID.TID 0000.0001)     ;
(PID.TID 0000.0001) rSphere =  /* Radius ( ignored - cartesian, m - spherical ) */
(PID.TID 0000.0001)                 6.370000000000000E+06
(PID.TID 0000.0001)     ;
(PID.TID 0000.0001) deepAtmosphere = /* Deep/Shallow Atmosphere flag (True/False) */
(PID.TID 0000.0001)                   F
(PID.TID 0000.0001)     ;
(PID.TID 0000.0001) xC =  /* xC(:,1,:,1) : P-point X coord ( deg. or m if cartesian) */
(PID.TID 0000.0001)                -8.156250254313150E+01,      /* I =  1 */
(PID.TID 0000.0001)                -8.152083587646484E+01,      /* I =  2 */
(PID.TID 0000.0001)                -8.147916920979816E+01,      /* I =  3 */
(PID.TID 0000.0001)      . . .
(PID.TID 0000.0001)                -7.822916920979779E+01,      /* I = 81 */
(PID.TID 0000.0001)                -7.818750254313113E+01,      /* I = 82 */
(PID.TID 0000.0001)                -7.814583587646445E+01,      /* I = 83 */
(PID.TID 0000.0001)                -7.810416920979779E+01,      /* I = 84 */
(PID.TID 0000.0001)                -7.806250254313110E+01,      /* I = 85 */
(PID.TID 0000.0001)                -7.802083587646445E+01,      /* I = 86 */
(PID.TID 0000.0001)      . . .
(PID.TID 0000.0001)                -7.481250254313073E+01,      /* I =163 */
(PID.TID 0000.0001)                -7.477083587646408E+01,      /* I =164 */
(PID.TID 0000.0001)                -7.472916920979739E+01,      /* I =165 */
(PID.TID 0000.0001)                -7.468750254313073E+01,      /* I =166 */
(PID.TID 0000.0001)                -7.464583587646405E+01,      /* I =167 */
(PID.TID 0000.0001)                -7.460416920979739E+01,      /* I =168 */
(PID.TID 0000.0001)      . . .
(PID.TID 0000.0001)                -7.139583587646368E+01,      /* I =245 */
(PID.TID 0000.0001)                -7.135416920979702E+01,      /* I =246 */
(PID.TID 0000.0001)                -7.131250254313034E+01,      /* I =247 */
(PID.TID 0000.0001)                -7.127083587646368E+01,      /* I =248 */
(PID.TID 0000.0001)                -7.122916920979699E+01,      /* I =249 */
(PID.TID 0000.0001)                -7.118750254313034E+01,      /* I =250 */
(PID.TID 0000.0001)      . . .
(PID.TID 0000.0001)                -6.793750254312997E+01,      /* I =328 */
(PID.TID 0000.0001)                -6.789583587646328E+01,      /* I =329 */
(PID.TID 0000.0001)                -6.785416920979662E+01       /* I =330 */
(PID.TID 0000.0001)     ;
(PID.TID 0000.0001) yC =  /* yC(1,:,1,:) : P-point Y coord ( deg. or m if cartesian) */
(PID.TID 0000.0001)                 2.687237834930420E+01,      /* J =  1 */
(PID.TID 0000.0001)                 2.690654373168945E+01,      /* J =  2 */
(PID.TID 0000.0001)                 2.694069957733154E+01,      /* J =  3 */
(PID.TID 0000.0001)                 2.697484493255615E+01,      /* J =  4 */
(PID.TID 0000.0001)                 2.700897979736328E+01,      /* J =  5 */
(PID.TID 0000.0001)                 2.704310512542725E+01,      /* J =  6 */
(PID.TID 0000.0001)                 2.707721996307373E+01,      /* J =  7 */
(PID.TID 0000.0001)                 2.711132431030273E+01,      /* J =  8 */
(PID.TID 0000.0001)                 2.714541912078857E+01,      /* J =  9 */
(PID.TID 0000.0001)                 2.717950344085693E+01,      /* J = 10 */
(PID.TID 0000.0001)                 2.721357727050781E+01,      /* J = 11 */
(PID.TID 0000.0001)                 2.724764060974121E+01,      /* J = 12 */
(PID.TID 0000.0001)                 2.728169441223145E+01,      /* J = 13 */
(PID.TID 0000.0001)                 2.731573772430420E+01,      /* J = 14 */
(PID.TID 0000.0001)                 2.734977054595947E+01,      /* J = 15 */
(PID.TID 0000.0001)                 2.738379383087158E+01,      /* J = 16 */
(PID.TID 0000.0001)                 2.741780662536621E+01,      /* J = 17 */
(PID.TID 0000.0001)                 2.745180892944336E+01,      /* J = 18 */
(PID.TID 0000.0001)                 2.748580074310303E+01,      /* J = 19 */
(PID.TID 0000.0001)                 2.751978206634521E+01,      /* J = 20 */
(PID.TID 0000.0001)                 2.755375289916992E+01,      /* J = 21 */
(PID.TID 0000.0001)                 2.758771419525146E+01,      /* J = 22 */
(PID.TID 0000.0001)                 2.762166500091553E+01,      /* J = 23 */
(PID.TID 0000.0001)                 2.765560531616211E+01,      /* J = 24 */
(PID.TID 0000.0001)                 2.768953609466553E+01,      /* J = 25 */
(PID.TID 0000.0001)                 2.772345638275146E+01,      /* J = 26 */
(PID.TID 0000.0001)                 2.775736522674561E+01,      /* J = 27 */
(PID.TID 0000.0001)                 2.779126453399658E+01       /* J = 28 */
(PID.TID 0000.0001)     ;
(PID.TID 0000.0001) rcoord = /* P-point R coordinate (  units of r ) */
(PID.TID 0000.0001)                -2.500000000000000E+00,      /* K =  1 */
(PID.TID 0000.0001)                -7.500000000000000E+00,      /* K =  2 */
(PID.TID 0000.0001)                -1.250000000000000E+01,      /* K =  3 */
(PID.TID 0000.0001)                -1.750000000000000E+01,      /* K =  4 */
(PID.TID 0000.0001)                -2.250000000000000E+01,      /* K =  5 */
(PID.TID 0000.0001)                -2.750000000000000E+01,      /* K =  6 */
(PID.TID 0000.0001)                -3.250000000000000E+01,      /* K =  7 */
(PID.TID 0000.0001)                -3.750000000000000E+01,      /* K =  8 */
(PID.TID 0000.0001)                -4.250000000000000E+01,      /* K =  9 */
(PID.TID 0000.0001)                -4.750000000000000E+01,      /* K = 10 */
(PID.TID 0000.0001)                -5.250000000000000E+01,      /* K = 11 */
(PID.TID 0000.0001)                -5.750000000000000E+01,      /* K = 12 */
(PID.TID 0000.0001)                -6.250000000000000E+01,      /* K = 13 */
(PID.TID 0000.0001)                -6.750000000000000E+01,      /* K = 14 */
(PID.TID 0000.0001)                -7.250000000000000E+01,      /* K = 15 */
(PID.TID 0000.0001)                -7.750500000000000E+01,      /* K = 16 */
(PID.TID 0000.0001)                -8.251500000000000E+01,      /* K = 17 */
(PID.TID 0000.0001)                -8.753000000000000E+01,      /* K = 18 */
(PID.TID 0000.0001)                -9.256000000000000E+01,      /* K = 19 */
(PID.TID 0000.0001)                -9.761500000000001E+01,      /* K = 20 */
(PID.TID 0000.0001)                -1.027100000000000E+02,      /* K = 21 */
(PID.TID 0000.0001)                -1.078700000000000E+02,      /* K = 22 */
(PID.TID 0000.0001)                -1.131250000000000E+02,      /* K = 23 */
(PID.TID 0000.0001)                -1.185250000000000E+02,      /* K = 24 */
(PID.TID 0000.0001)                -1.241300000000000E+02,      /* K = 25 */
(PID.TID 0000.0001)                -1.300100000000000E+02,      /* K = 26 */
(PID.TID 0000.0001)                -1.362550000000000E+02,      /* K = 27 */
(PID.TID 0000.0001)                -1.429650000000000E+02,      /* K = 28 */
(PID.TID 0000.0001)                -1.502600000000000E+02,      /* K = 29 */
(PID.TID 0000.0001)                -1.582800000000000E+02,      /* K = 30 */
(PID.TID 0000.0001)                -1.671700000000000E+02,      /* K = 31 */
(PID.TID 0000.0001)                -1.770800000000000E+02,      /* K = 32 */
(PID.TID 0000.0001)                -1.881700000000000E+02,      /* K = 33 */
(PID.TID 0000.0001)                -2.005950000000000E+02,      /* K = 34 */
(PID.TID 0000.0001)                -2.145100000000000E+02,      /* K = 35 */
(PID.TID 0000.0001)                -2.300600000000000E+02,      /* K = 36 */
(PID.TID 0000.0001)                -2.473800000000000E+02,      /* K = 37 */
(PID.TID 0000.0001)                -2.665900000000000E+02,      /* K = 38 */
(PID.TID 0000.0001)                -2.877850000000000E+02,      /* K = 39 */
(PID.TID 0000.0001)                -3.110350000000000E+02,      /* K = 40 */
(PID.TID 0000.0001)                -3.363950000000000E+02,      /* K = 41 */
(PID.TID 0000.0001)                -3.638950000000000E+02,      /* K = 42 */
(PID.TID 0000.0001)                -3.935350000000000E+02,      /* K = 43 */
(PID.TID 0000.0001)                -4.252850000000000E+02,      /* K = 44 */
(PID.TID 0000.0001)                -4.590900000000000E+02,      /* K = 45 */
(PID.TID 0000.0001)                -4.948800000000001E+02,      /* K = 46 */
(PID.TID 0000.0001)                -5.325600000000001E+02,      /* K = 47 */
(PID.TID 0000.0001)                -5.720100000000001E+02,      /* K = 48 */
(PID.TID 0000.0001)                -6.130950000000001E+02,      /* K = 49 */
(PID.TID 0000.0001)                -6.556700000000002E+02,      /* K = 50 */
(PID.TID 0000.0001)                -6.995800000000002E+02,      /* K = 51 */
(PID.TID 0000.0001)                -7.446700000000002E+02,      /* K = 52 */
(PID.TID 0000.0001)                -7.907800000000002E+02,      /* K = 53 */
(PID.TID 0000.0001)                -8.377600000000002E+02,      /* K = 54 */
(PID.TID 0000.0001)                -8.854650000000003E+02,      /* K = 55 */
(PID.TID 0000.0001)                -9.337550000000002E+02,      /* K = 56 */
(PID.TID 0000.0001)                -9.825100000000002E+02,      /* K = 57 */
(PID.TID 0000.0001)                -1.031635000000000E+03,      /* K = 58 */
(PID.TID 0000.0001)                -1.081045000000000E+03,      /* K = 59 */
(PID.TID 0000.0001)                -1.130670000000000E+03,      /* K = 60 */
(PID.TID 0000.0001)                -1.180480000000000E+03,      /* K = 61 */
(PID.TID 0000.0001)                -1.230485000000000E+03,      /* K = 62 */
(PID.TID 0000.0001)                -1.280745000000000E+03,      /* K = 63 */
(PID.TID 0000.0001)                -1.331410000000000E+03,      /* K = 64 */
(PID.TID 0000.0001)                -1.382715000000000E+03,      /* K = 65 */
(PID.TID 0000.0001)                -1.434995000000000E+03,      /* K = 66 */
(PID.TID 0000.0001)                -1.488700000000000E+03,      /* K = 67 */
(PID.TID 0000.0001)                -1.544365000000000E+03,      /* K = 68 */
(PID.TID 0000.0001)                -1.602595000000000E+03,      /* K = 69 */
(PID.TID 0000.0001)                -1.664010000000000E+03,      /* K = 70 */
(PID.TID 0000.0001)                -1.729220000000000E+03,      /* K = 71 */
(PID.TID 0000.0001)                -1.798765000000000E+03,      /* K = 72 */
(PID.TID 0000.0001)                -1.873095000000000E+03,      /* K = 73 */
(PID.TID 0000.0001)                -1.952565000000000E+03,      /* K = 74 */
(PID.TID 0000.0001)                -2.037425000000000E+03,      /* K = 75 */
(PID.TID 0000.0001)                -2.127840000000000E+03,      /* K = 76 */
(PID.TID 0000.0001)                -2.223905000000000E+03,      /* K = 77 */
(PID.TID 0000.0001)                -2.325680000000000E+03,      /* K = 78 */
(PID.TID 0000.0001)                -2.433190000000001E+03,      /* K = 79 */
(PID.TID 0000.0001)                -2.546440000000001E+03,      /* K = 80 */
(PID.TID 0000.0001)                -2.665435000000000E+03,      /* K = 81 */
(PID.TID 0000.0001)                -2.790185000000000E+03,      /* K = 82 */
(PID.TID 0000.0001)                -2.920690000000001E+03,      /* K = 83 */
(PID.TID 0000.0001)                -3.056940000000001E+03,      /* K = 84 */
(PID.TID 0000.0001)                -3.198935000000000E+03,      /* K = 85 */
(PID.TID 0000.0001)                -3.346685000000000E+03,      /* K = 86 */
(PID.TID 0000.0001)                -3.500190000000001E+03,      /* K = 87 */
(PID.TID 0000.0001)                -3.659440000000001E+03,      /* K = 88 */
(PID.TID 0000.0001)                -3.824435000000000E+03,      /* K = 89 */
(PID.TID 0000.0001)                -3.995185000000000E+03,      /* K = 90 */
(PID.TID 0000.0001)                -4.171690000000001E+03,      /* K = 91 */
(PID.TID 0000.0001)                -4.353940000000001E+03,      /* K = 92 */
(PID.TID 0000.0001)                -4.541935000000000E+03,      /* K = 93 */
(PID.TID 0000.0001)                -4.735685000000000E+03,      /* K = 94 */
(PID.TID 0000.0001)                -4.935190000000001E+03,      /* K = 95 */
(PID.TID 0000.0001)                -5.140440000000001E+03,      /* K = 96 */
(PID.TID 0000.0001)                -5.351435000000000E+03,      /* K = 97 */
(PID.TID 0000.0001)                -5.568185000000000E+03,      /* K = 98 */
(PID.TID 0000.0001)                -5.790690000000001E+03,      /* K = 99 */
(PID.TID 0000.0001)                -6.018940000000001E+03       /* K =100 */
(PID.TID 0000.0001)     ;
(PID.TID 0000.0001) rF =   /* W-Interf. R coordinate (  units of r ) */
(PID.TID 0000.0001)                 0.000000000000000E+00,      /* K =  1 */
(PID.TID 0000.0001)                -5.000000000000000E+00,      /* K =  2 */
(PID.TID 0000.0001)                -1.000000000000000E+01,      /* K =  3 */
(PID.TID 0000.0001)                -1.500000000000000E+01,      /* K =  4 */
(PID.TID 0000.0001)                -2.000000000000000E+01,      /* K =  5 */
(PID.TID 0000.0001)                -2.500000000000000E+01,      /* K =  6 */
(PID.TID 0000.0001)                -3.000000000000000E+01,      /* K =  7 */
(PID.TID 0000.0001)                -3.500000000000000E+01,      /* K =  8 */
(PID.TID 0000.0001)                -4.000000000000000E+01,      /* K =  9 */
(PID.TID 0000.0001)                -4.500000000000000E+01,      /* K = 10 */
(PID.TID 0000.0001)                -5.000000000000000E+01,      /* K = 11 */
(PID.TID 0000.0001)                -5.500000000000000E+01,      /* K = 12 */
(PID.TID 0000.0001)                -6.000000000000000E+01,      /* K = 13 */
(PID.TID 0000.0001)                -6.500000000000000E+01,      /* K = 14 */
(PID.TID 0000.0001)                -7.000000000000000E+01,      /* K = 15 */
(PID.TID 0000.0001)                -7.500000000000000E+01,      /* K = 16 */
(PID.TID 0000.0001)                -8.001000000000001E+01,      /* K = 17 */
(PID.TID 0000.0001)                -8.502000000000001E+01,      /* K = 18 */
(PID.TID 0000.0001)                -9.004000000000001E+01,      /* K = 19 */
(PID.TID 0000.0001)                -9.508000000000001E+01,      /* K = 20 */
(PID.TID 0000.0001)                -1.001500000000000E+02,      /* K = 21 */
(PID.TID 0000.0001)                -1.052700000000000E+02,      /* K = 22 */
(PID.TID 0000.0001)                -1.104700000000000E+02,      /* K = 23 */
(PID.TID 0000.0001)                -1.157800000000000E+02,      /* K = 24 */
(PID.TID 0000.0001)                -1.212700000000000E+02,      /* K = 25 */
(PID.TID 0000.0001)                -1.269900000000000E+02,      /* K = 26 */
(PID.TID 0000.0001)                -1.330300000000000E+02,      /* K = 27 */
(PID.TID 0000.0001)                -1.394800000000000E+02,      /* K = 28 */
(PID.TID 0000.0001)                -1.464500000000000E+02,      /* K = 29 */
(PID.TID 0000.0001)                -1.540700000000000E+02,      /* K = 30 */
(PID.TID 0000.0001)                -1.624900000000000E+02,      /* K = 31 */
(PID.TID 0000.0001)                -1.718500000000000E+02,      /* K = 32 */
(PID.TID 0000.0001)                -1.823100000000000E+02,      /* K = 33 */
(PID.TID 0000.0001)                -1.940300000000000E+02,      /* K = 34 */
(PID.TID 0000.0001)                -2.071600000000000E+02,      /* K = 35 */
(PID.TID 0000.0001)                -2.218600000000000E+02,      /* K = 36 */
(PID.TID 0000.0001)                -2.382600000000000E+02,      /* K = 37 */
(PID.TID 0000.0001)                -2.564999999999999E+02,      /* K = 38 */
(PID.TID 0000.0001)                -2.766799999999999E+02,      /* K = 39 */
(PID.TID 0000.0001)                -2.988899999999999E+02,      /* K = 40 */
(PID.TID 0000.0001)                -3.231799999999999E+02,      /* K = 41 */
(PID.TID 0000.0001)                -3.496100000000000E+02,      /* K = 42 */
(PID.TID 0000.0001)                -3.781799999999999E+02,      /* K = 43 */
(PID.TID 0000.0001)                -4.088899999999999E+02,      /* K = 44 */
(PID.TID 0000.0001)                -4.416799999999999E+02,      /* K = 45 */
(PID.TID 0000.0001)                -4.764999999999999E+02,      /* K = 46 */
(PID.TID 0000.0001)                -5.132600000000000E+02,      /* K = 47 */
(PID.TID 0000.0001)                -5.518600000000000E+02,      /* K = 48 */
(PID.TID 0000.0001)                -5.921600000000000E+02,      /* K = 49 */
(PID.TID 0000.0001)                -6.340300000000000E+02,      /* K = 50 */
(PID.TID 0000.0001)                -6.773099999999999E+02,      /* K = 51 */
(PID.TID 0000.0001)                -7.218499999999999E+02,      /* K = 52 */
(PID.TID 0000.0001)                -7.674899999999999E+02,      /* K = 53 */
(PID.TID 0000.0001)                -8.140699999999999E+02,      /* K = 54 */
(PID.TID 0000.0001)                -8.614499999999999E+02,      /* K = 55 */
(PID.TID 0000.0001)                -9.094799999999999E+02,      /* K = 56 */
(PID.TID 0000.0001)                -9.580299999999999E+02,      /* K = 57 */
(PID.TID 0000.0001)                -1.006990000000000E+03,      /* K = 58 */
(PID.TID 0000.0001)                -1.056280000000000E+03,      /* K = 59 */
(PID.TID 0000.0001)                -1.105810000000000E+03,      /* K = 60 */
(PID.TID 0000.0001)                -1.155530000000000E+03,      /* K = 61 */
(PID.TID 0000.0001)                -1.205430000000000E+03,      /* K = 62 */
(PID.TID 0000.0001)                -1.255540000000000E+03,      /* K = 63 */
(PID.TID 0000.0001)                -1.305950000000000E+03,      /* K = 64 */
(PID.TID 0000.0001)                -1.356870000000000E+03,      /* K = 65 */
(PID.TID 0000.0001)                -1.408560000000000E+03,      /* K = 66 */
(PID.TID 0000.0001)                -1.461430000000000E+03,      /* K = 67 */
(PID.TID 0000.0001)                -1.515970000000000E+03,      /* K = 68 */
(PID.TID 0000.0001)                -1.572760000000000E+03,      /* K = 69 */
(PID.TID 0000.0001)                -1.632430000000000E+03,      /* K = 70 */
(PID.TID 0000.0001)                -1.695590000000000E+03,      /* K = 71 */
(PID.TID 0000.0001)                -1.762850000000000E+03,      /* K = 72 */
(PID.TID 0000.0001)                -1.834680000000000E+03,      /* K = 73 */
(PID.TID 0000.0001)                -1.911510000000000E+03,      /* K = 74 */
(PID.TID 0000.0001)                -1.993620000000000E+03,      /* K = 75 */
(PID.TID 0000.0001)                -2.081230000000000E+03,      /* K = 76 */
(PID.TID 0000.0001)                -2.174450000000000E+03,      /* K = 77 */
(PID.TID 0000.0001)                -2.273360000000000E+03,      /* K = 78 */
(PID.TID 0000.0001)                -2.378000000000000E+03,      /* K = 79 */
(PID.TID 0000.0001)                -2.488380000000000E+03,      /* K = 80 */
(PID.TID 0000.0001)                -2.604500000000000E+03,      /* K = 81 */
(PID.TID 0000.0001)                -2.726369999999999E+03,      /* K = 82 */
(PID.TID 0000.0001)                -2.854000000000000E+03,      /* K = 83 */
(PID.TID 0000.0001)                -2.987380000000000E+03,      /* K = 84 */
(PID.TID 0000.0001)                -3.126500000000000E+03,      /* K = 85 */
(PID.TID 0000.0001)                -3.271369999999999E+03,      /* K = 86 */
(PID.TID 0000.0001)                -3.422000000000000E+03,      /* K = 87 */
(PID.TID 0000.0001)                -3.578380000000000E+03,      /* K = 88 */
(PID.TID 0000.0001)                -3.740500000000000E+03,      /* K = 89 */
(PID.TID 0000.0001)                -3.908369999999999E+03,      /* K = 90 */
(PID.TID 0000.0001)                -4.082000000000000E+03,      /* K = 91 */
(PID.TID 0000.0001)                -4.261379999999999E+03,      /* K = 92 */
(PID.TID 0000.0001)                -4.446499999999999E+03,      /* K = 93 */
(PID.TID 0000.0001)                -4.637369999999999E+03,      /* K = 94 */
(PID.TID 0000.0001)                -4.833999999999999E+03,      /* K = 95 */
(PID.TID 0000.0001)                -5.036379999999999E+03,      /* K = 96 */
(PID.TID 0000.0001)                -5.244499999999999E+03,      /* K = 97 */
(PID.TID 0000.0001)                -5.458369999999999E+03,      /* K = 98 */
(PID.TID 0000.0001)                -5.677999999999999E+03,      /* K = 99 */
(PID.TID 0000.0001)                -5.903379999999999E+03,      /* K =100 */
(PID.TID 0000.0001)                -6.134499999999999E+03       /* K =101 */
(PID.TID 0000.0001)     ;
(PID.TID 0000.0001) deepFacC = /* deep-model grid factor @ cell-Center (-) */
(PID.TID 0000.0001)   100 @  1.000000000000000E+00              /* K =  1:100 */
(PID.TID 0000.0001)     ;
(PID.TID 0000.0001) deepFacF = /* deep-model grid factor @ W-Interface (-) */
(PID.TID 0000.0001)   101 @  1.000000000000000E+00              /* K =  1:101 */
(PID.TID 0000.0001)     ;
(PID.TID 0000.0001) rVel2wUnit = /* convert units: rVel -> wSpeed (=1 if z-coord)*/
(PID.TID 0000.0001)   101 @  1.000000000000000E+00              /* K =  1:101 */
(PID.TID 0000.0001)     ;
(PID.TID 0000.0001) wUnit2rVel = /* convert units: wSpeed -> rVel (=1 if z-coord)*/
(PID.TID 0000.0001)   101 @  1.000000000000000E+00              /* K =  1:101 */
(PID.TID 0000.0001)     ;
(PID.TID 0000.0001) dBdrRef = /* Vertical grad. of reference buoyancy [(m/s/r)^2] */
(PID.TID 0000.0001)     5 @  0.000000000000000E+00,             /* K =  1:  5 */
(PID.TID 0000.0001)                 9.694282843778342E-06,      /* K =  6 */
(PID.TID 0000.0001)                 2.426513223807763E-05,      /* K =  7 */
(PID.TID 0000.0001)                 1.452975530153167E-05,      /* K =  8 */
(PID.TID 0000.0001)                 9.681498625854328E-06,      /* K =  9 */
(PID.TID 0000.0001)                 4.842099844624020E-05,      /* K = 10 */
(PID.TID 0000.0001)                 6.280856330023614E-05,      /* K = 11 */
(PID.TID 0000.0001)                 8.185617076656702E-05,      /* K = 12 */
(PID.TID 0000.0001)                 1.295252644691406E-04,      /* K = 13 */
(PID.TID 0000.0001)                 1.095351351384002E-04,      /* K = 14 */
(PID.TID 0000.0001)                 1.329169312007239E-04,      /* K = 15 */
(PID.TID 0000.0001)                 1.367041979360881E-04,      /* K = 16 */
(PID.TID 0000.0001)                 1.211727126593573E-04,      /* K = 17 */
(PID.TID 0000.0001)                 1.302265701121417E-04,      /* K = 18 */
(PID.TID 0000.0001)                 1.190854314588815E-04,      /* K = 19 */
(PID.TID 0000.0001)                 1.132023267377615E-04,      /* K = 20 */
(PID.TID 0000.0001)                 1.071632265654582E-04,      /* K = 21 */
(PID.TID 0000.0001)                 1.051393672457803E-04,      /* K = 22 */
(PID.TID 0000.0001)                 1.025752720636568E-04,      /* K = 23 */
(PID.TID 0000.0001)                 9.917395824143918E-05,      /* K = 24 */
(PID.TID 0000.0001)                 9.104030067387556E-05,      /* K = 25 */
(PID.TID 0000.0001)                 8.624441260795840E-05,      /* K = 26 */
(PID.TID 0000.0001)                 8.413036901537412E-05,      /* K = 27 */
(PID.TID 0000.0001)                 6.366728012651445E-05,      /* K = 28 */
(PID.TID 0000.0001)                 5.812092618380799E-05,      /* K = 29 */
(PID.TID 0000.0001)                 5.507951137016039E-05,      /* K = 30 */
(PID.TID 0000.0001)                 4.695510592930360E-05,      /* K = 31 */
(PID.TID 0000.0001)                 4.596409715692217E-05,      /* K = 32 */
(PID.TID 0000.0001)                 4.072795425761271E-05,      /* K = 33 */
(PID.TID 0000.0001)                 3.175298295526856E-05,      /* K = 34 */
(PID.TID 0000.0001)                 3.093452381022950E-05,      /* K = 35 */
(PID.TID 0000.0001)                 2.864003459600112E-05,      /* K = 36 */
(PID.TID 0000.0001)                 2.767315329576147E-05,      /* K = 37 */
(PID.TID 0000.0001)                 2.463000191580109E-05,      /* K = 38 */
(PID.TID 0000.0001)                 2.475053767167416E-05,      /* K = 39 */
(PID.TID 0000.0001)                 1.906506350221241E-05,      /* K = 40 */
(PID.TID 0000.0001)                 1.865582618722828E-05,      /* K = 41 */
(PID.TID 0000.0001)                 1.823366094760355E-05,      /* K = 42 */
(PID.TID 0000.0001)                 1.471037885515795E-05,      /* K = 43 */
(PID.TID 0000.0001)                 1.630603945735049E-05,      /* K = 44 */
(PID.TID 0000.0001)                 1.384745352787863E-05,      /* K = 45 */
(PID.TID 0000.0001)                 1.226594411185851E-05,      /* K = 46 */
(PID.TID 0000.0001)                 1.225310460290910E-05,      /* K = 47 */
(PID.TID 0000.0001)                 1.223011113144029E-05,      /* K = 48 */
(PID.TID 0000.0001)                 1.061638239990844E-05,      /* K = 49 */
(PID.TID 0000.0001)                 1.070650633014499E-05,      /* K = 50 */
(PID.TID 0000.0001)                 9.357472423340062E-06,      /* K = 51 */
(PID.TID 0000.0001)                 9.812756875994976E-06,      /* K = 52 */
(PID.TID 0000.0001)                 9.364680965538371E-06,      /* K = 53 */
(PID.TID 0000.0001)                 6.430982300518885E-06,      /* K = 54 */
(PID.TID 0000.0001)                 8.970058816087760E-06,      /* K = 55 */
(PID.TID 0000.0001)                 8.398462027768182E-06,      /* K = 56 */
(PID.TID 0000.0001)                 7.294531901104187E-06,      /* K = 57 */
(PID.TID 0000.0001)                 8.642565592484861E-06,      /* K = 58 */
(PID.TID 0000.0001)                 6.405731826441176E-06,      /* K = 59 */
(PID.TID 0000.0001)                 8.743452988220992E-06,      /* K = 60 */
(PID.TID 0000.0001)                 6.590306221026928E-06,      /* K = 61 */
(PID.TID 0000.0001)                 7.462277694900194E-06,      /* K = 62 */
(PID.TID 0000.0001)                 5.625478499738029E-06,      /* K = 63 */
(PID.TID 0000.0001)                 6.494457456351866E-06,      /* K = 64 */
(PID.TID 0000.0001)                 5.872364624284492E-06,      /* K = 65 */
(PID.TID 0000.0001)                 5.495436518643386E-06,      /* K = 66 */
(PID.TID 0000.0001)                 5.094601592541214E-06,      /* K = 67 */
(PID.TID 0000.0001)                 4.437172619322077E-06,      /* K = 68 */
(PID.TID 0000.0001)                 4.016940542409763E-06,      /* K = 69 */
(PID.TID 0000.0001)                 4.028908121728164E-06,      /* K = 70 */
(PID.TID 0000.0001)                 2.246388502686123E-06,      /* K = 71 */
(PID.TID 0000.0001)                 2.998142894531076E-06,      /* K = 72 */
(PID.TID 0000.0001)                 2.815413573924730E-06,      /* K = 73 */
(PID.TID 0000.0001)                 2.814329879263964E-06,      /* K = 74 */
(PID.TID 0000.0001)                 2.327158902006369E-06,      /* K = 75 */
(PID.TID 0000.0001)                 1.523559191918705E-06,      /* K = 76 */
(PID.TID 0000.0001)                 2.223754279938488E-06,      /* K = 77 */
(PID.TID 0000.0001)                 1.243572598777220E-06,      /* K = 78 */
(PID.TID 0000.0001)                 1.884009398486976E-06,      /* K = 79 */
(PID.TID 0000.0001)                 1.146309977456730E-06,      /* K = 80 */
(PID.TID 0000.0001)                 9.836409573498765E-07,      /* K = 81 */
(PID.TID 0000.0001)                 1.666564082034753E-06,      /* K = 82 */
(PID.TID 0000.0001)                 8.096789666921265E-07,      /* K = 83 */
(PID.TID 0000.0001)                 9.015806361848934E-07,      /* K = 84 */
(PID.TID 0000.0001)                 9.899996711216439E-07,      /* K = 85 */
(PID.TID 0000.0001)                 1.360959195968683E-06,      /* K = 86 */
(PID.TID 0000.0001)                 3.633635105266278E-07,      /* K = 87 */
(PID.TID 0000.0001)                 7.257552276248978E-07,      /* K = 88 */
(PID.TID 0000.0001)                 8.165089567519712E-07,      /* K = 89 */
(PID.TID 0000.0001)                 7.043987264958734E-07,      /* K = 90 */
(PID.TID 0000.0001)                 6.956983617110328E-07,      /* K = 91 */
(PID.TID 0000.0001)                 6.880703959048398E-07,      /* K = 92 */
(PID.TID 0000.0001)                 6.813676413074075E-07,      /* K = 93 */
(PID.TID 0000.0001)                 6.754628223828996E-07,      /* K = 94 */
(PID.TID 0000.0001)                 3.049729588883796E-07,      /* K = 95 */
(PID.TID 0000.0001)                 6.657955553385863E-07,      /* K = 96 */
(PID.TID 0000.0001)                 5.675084375793845E-07,      /* K = 97 */
(PID.TID 0000.0001)                 3.767262833194376E-07,      /* K = 98 */
(PID.TID 0000.0001)                 2.816808424830599E-07,      /* K = 99 */
(PID.TID 0000.0001)                 1.873891169846885E-07       /* K =100 */
(PID.TID 0000.0001)     ;
(PID.TID 0000.0001) rotateGrid = /* use rotated grid ( True/False ) */
(PID.TID 0000.0001)                   F
(PID.TID 0000.0001)     ;
(PID.TID 0000.0001) phiEuler = /* Euler angle, rotation about original z-coordinate [rad] */
(PID.TID 0000.0001)                 0.000000000000000E+00
(PID.TID 0000.0001)     ;
(PID.TID 0000.0001) thetaEuler = /* Euler angle, rotation about new x-coordinate [rad] */
(PID.TID 0000.0001)                 0.000000000000000E+00
(PID.TID 0000.0001)     ;
(PID.TID 0000.0001) psiEuler = /* Euler angle, rotation about new z-coordinate [rad] */
(PID.TID 0000.0001)                 0.000000000000000E+00
(PID.TID 0000.0001)     ;
(PID.TID 0000.0001) dxF =  /* dxF(:,1,:,1) ( units: m ) */
(PID.TID 0000.0001)   330 @  4.132168078704865E+03              /* I =  1:330 */
(PID.TID 0000.0001)     ;
(PID.TID 0000.0001) dxF =  /* dxF(1,:,1,:) ( units: m ) */
(PID.TID 0000.0001)                 4.132168078704865E+03,      /* J =  1 */
(PID.TID 0000.0001)                 4.130918776160077E+03,      /* J =  2 */
(PID.TID 0000.0001)                 4.129668354115694E+03,      /* J =  3 */
(PID.TID 0000.0001)                 4.128416849220377E+03,      /* J =  4 */
(PID.TID 0000.0001)                 4.127164263270209E+03,      /* J =  5 */
(PID.TID 0000.0001)                 4.125910563003906E+03,      /* J =  6 */
(PID.TID 0000.0001)                 4.124655785191007E+03,      /* J =  7 */
(PID.TID 0000.0001)                 4.123399931625523E+03,      /* J =  8 */
(PID.TID 0000.0001)                 4.122142968921520E+03,      /* J =  9 */
(PID.TID 0000.0001)                 4.120884933969184E+03,      /* J = 10 */
(PID.TID 0000.0001)                 4.119625828560444E+03,      /* J = 11 */
(PID.TID 0000.0001)                 4.118365654486509E+03,      /* J = 12 */
(PID.TID 0000.0001)                 4.117104378195548E+03,      /* J = 13 */
(PID.TID 0000.0001)                 4.115842036738223E+03,      /* J = 14 */
(PID.TID 0000.0001)                 4.114578631903650E+03,      /* J = 15 */
(PID.TID 0000.0001)                 4.113314130015837E+03,      /* J = 16 */
(PID.TID 0000.0001)                 4.112048568245555E+03,      /* J = 17 */
(PID.TID 0000.0001)                 4.110781948379812E+03,      /* J = 18 */
(PID.TID 0000.0001)                 4.109514272204890E+03,      /* J = 19 */
(PID.TID 0000.0001)                 4.108245541506343E+03,      /* J = 20 */
(PID.TID 0000.0001)                 4.106975758068988E+03,      /* J = 21 */
(PID.TID 0000.0001)                 4.105704887969090E+03,      /* J = 22 */
(PID.TID 0000.0001)                 4.104432968616856E+03,      /* J = 23 */
(PID.TID 0000.0001)                 4.103160001794981E+03,      /* J = 24 */
(PID.TID 0000.0001)                 4.101885953456212E+03,      /* J = 25 */
(PID.TID 0000.0001)                 4.100610861130162E+03,      /* J = 26 */
(PID.TID 0000.0001)                 4.099334762507415E+03,      /* J = 27 */
(PID.TID 0000.0001)                 4.098057587588119E+03       /* J = 28 */
(PID.TID 0000.0001)     ;
(PID.TID 0000.0001) dyF =  /* dyF(:,1,:,1) ( units: m ) */
(PID.TID 0000.0001)   330 @  3.798951025203276E+03              /* I =  1:330 */
(PID.TID 0000.0001)     ;
(PID.TID 0000.0001) dyF =  /* dyF(1,:,1,:) ( units: m ) */
(PID.TID 0000.0001)                 3.798951025203276E+03,      /* J =  1 */
(PID.TID 0000.0001)                 3.797890754194288E+03,      /* J =  2 */
(PID.TID 0000.0001)                 3.796830483185300E+03,      /* J =  3 */
(PID.TID 0000.0001)                 3.795558157974515E+03,      /* J =  4 */
(PID.TID 0000.0001)                 3.794497886965527E+03,      /* J =  5 */
(PID.TID 0000.0001)                 3.793437615956539E+03,      /* J =  6 */
(PID.TID 0000.0001)                 3.792165290745754E+03,      /* J =  7 */
(PID.TID 0000.0001)                 3.791105019736766E+03,      /* J =  8 */
(PID.TID 0000.0001)                 3.790044748727778E+03,      /* J =  9 */
(PID.TID 0000.0001)                 3.788772423516993E+03,      /* J = 10 */
(PID.TID 0000.0001)                 3.787712152508005E+03,      /* J = 11 */
(PID.TID 0000.0001)                 3.786439827297219E+03,      /* J = 12 */
(PID.TID 0000.0001)                 3.785591610490029E+03,      /* J = 13 */
(PID.TID 0000.0001)                 3.784107231077447E+03,      /* J = 14 */
(PID.TID 0000.0001)                 3.783259014270256E+03,      /* J = 15 */
(PID.TID 0000.0001)                 3.781986689059471E+03,      /* J = 16 */
(PID.TID 0000.0001)                 3.780926418050483E+03,      /* J = 17 */
(PID.TID 0000.0001)                 3.779654092839698E+03,      /* J = 18 */
(PID.TID 0000.0001)                 3.778593821830710E+03,      /* J = 19 */
(PID.TID 0000.0001)                 3.777321496619924E+03,      /* J = 20 */
(PID.TID 0000.0001)                 3.776261225610937E+03,      /* J = 21 */
(PID.TID 0000.0001)                 3.775200954601949E+03,      /* J = 22 */
(PID.TID 0000.0001)                 3.773928629391164E+03,      /* J = 23 */
(PID.TID 0000.0001)                 3.772868358382176E+03,      /* J = 24 */
(PID.TID 0000.0001)                 3.771808087373188E+03,      /* J = 25 */
(PID.TID 0000.0001)                 3.770535762162403E+03,      /* J = 26 */
(PID.TID 0000.0001)                 3.769263436951617E+03,      /* J = 27 */
(PID.TID 0000.0001)                 3.768415220144427E+03       /* J = 28 */
(PID.TID 0000.0001)     ;
(PID.TID 0000.0001) dxG =  /* dxG(:,1,:,1) ( units: m ) */
(PID.TID 0000.0001)   330 @  4.132792266102490E+03              /* I =  1:330 */
(PID.TID 0000.0001)     ;
(PID.TID 0000.0001) dxG =  /* dxG(1,:,1,:) ( units: m ) */
(PID.TID 0000.0001)                 4.132792266102490E+03,      /* J =  1 */
(PID.TID 0000.0001)                 4.131543523884096E+03,      /* J =  2 */
(PID.TID 0000.0001)                 4.130293661329000E+03,      /* J =  3 */
(PID.TID 0000.0001)                 4.129042680111336E+03,      /* J =  4 */
(PID.TID 0000.0001)                 4.127790651895232E+03,      /* J =  5 */
(PID.TID 0000.0001)                 4.126537508526810E+03,      /* J =  6 */
(PID.TID 0000.0001)                 4.125283251678356E+03,      /* J =  7 */
(PID.TID 0000.0001)                 4.124027953257525E+03,      /* J =  8 */
(PID.TID 0000.0001)                 4.122771544862921E+03,      /* J =  9 */
(PID.TID 0000.0001)                 4.121514028164970E+03,      /* J = 10 */
(PID.TID 0000.0001)                 4.120255475314408E+03,      /* J = 11 */
(PID.TID 0000.0001)                 4.118995817662741E+03,      /* J = 12 */
(PID.TID 0000.0001)                 4.117735127522450E+03,      /* J = 13 */
(PID.TID 0000.0001)                 4.116473265355150E+03,      /* J = 14 */
(PID.TID 0000.0001)                 4.115210445004191E+03,      /* J = 15 */
(PID.TID 0000.0001)                 4.113946455960185E+03,      /* J = 16 */
(PID.TID 0000.0001)                 4.112681441584010E+03,      /* J = 17 */
(PID.TID 0000.0001)                 4.111415332734301E+03,      /* J = 18 */
(PID.TID 0000.0001)                 4.110148202207719E+03,      /* J = 19 */
(PID.TID 0000.0001)                 4.108879980698939E+03,      /* J = 20 */
(PID.TID 0000.0001)                 4.107610741165563E+03,      /* J = 21 */
(PID.TID 0000.0001)                 4.106340414138508E+03,      /* J = 22 */
(PID.TID 0000.0001)                 4.105069001279958E+03,      /* J = 23 */
(PID.TID 0000.0001)                 4.103796575788615E+03,      /* J = 24 */
(PID.TID 0000.0001)                 4.102523067950195E+03,      /* J = 25 */
(PID.TID 0000.0001)                 4.101248479424976E+03,      /* J = 26 */
(PID.TID 0000.0001)                 4.099972883652305E+03,      /* J = 27 */
(PID.TID 0000.0001)                 4.098696282533544E+03       /* J = 28 */
(PID.TID 0000.0001)     ;
(PID.TID 0000.0001) dyG =  /* dyG(:,1,:,1) ( units: m ) */
(PID.TID 0000.0001)   330 @  3.798951025203276E+03              /* I =  1:330 */
(PID.TID 0000.0001)     ;
(PID.TID 0000.0001) dyG =  /* dyG(1,:,1,:) ( units: m ) */
(PID.TID 0000.0001)                 3.798951025203276E+03,      /* J =  1 */
(PID.TID 0000.0001)                 3.797890754194288E+03,      /* J =  2 */
(PID.TID 0000.0001)                 3.796830483185300E+03,      /* J =  3 */
(PID.TID 0000.0001)                 3.795558157974515E+03,      /* J =  4 */
(PID.TID 0000.0001)                 3.794497886965527E+03,      /* J =  5 */
(PID.TID 0000.0001)                 3.793437615956539E+03,      /* J =  6 */
(PID.TID 0000.0001)                 3.792165290745754E+03,      /* J =  7 */
(PID.TID 0000.0001)                 3.791105019736766E+03,      /* J =  8 */
(PID.TID 0000.0001)                 3.790044748727778E+03,      /* J =  9 */
(PID.TID 0000.0001)                 3.788772423516993E+03,      /* J = 10 */
(PID.TID 0000.0001)                 3.787712152508005E+03,      /* J = 11 */
(PID.TID 0000.0001)                 3.786439827297219E+03,      /* J = 12 */
(PID.TID 0000.0001)                 3.785591610490029E+03,      /* J = 13 */
(PID.TID 0000.0001)                 3.784107231077447E+03,      /* J = 14 */
(PID.TID 0000.0001)                 3.783259014270256E+03,      /* J = 15 */
(PID.TID 0000.0001)                 3.781986689059471E+03,      /* J = 16 */
(PID.TID 0000.0001)                 3.780926418050483E+03,      /* J = 17 */
(PID.TID 0000.0001)                 3.779654092839698E+03,      /* J = 18 */
(PID.TID 0000.0001)                 3.778593821830710E+03,      /* J = 19 */
(PID.TID 0000.0001)                 3.777321496619924E+03,      /* J = 20 */
(PID.TID 0000.0001)                 3.776261225610937E+03,      /* J = 21 */
(PID.TID 0000.0001)                 3.775200954601949E+03,      /* J = 22 */
(PID.TID 0000.0001)                 3.773928629391164E+03,      /* J = 23 */
(PID.TID 0000.0001)                 3.772868358382176E+03,      /* J = 24 */
(PID.TID 0000.0001)                 3.771808087373188E+03,      /* J = 25 */
(PID.TID 0000.0001)                 3.770535762162403E+03,      /* J = 26 */
(PID.TID 0000.0001)                 3.769263436951617E+03,      /* J = 27 */
(PID.TID 0000.0001)                 3.768415220144427E+03       /* J = 28 */
(PID.TID 0000.0001)     ;
(PID.TID 0000.0001) dxC =  /* dxC(:,1,:,1) ( units: m ) */
(PID.TID 0000.0001)   330 @  4.132168078704865E+03              /* I =  1:330 */
(PID.TID 0000.0001)     ;
(PID.TID 0000.0001) dxC =  /* dxC(1,:,1,:) ( units: m ) */
(PID.TID 0000.0001)                 4.132168078704865E+03,      /* J =  1 */
(PID.TID 0000.0001)                 4.130918776160077E+03,      /* J =  2 */
(PID.TID 0000.0001)                 4.129668354115694E+03,      /* J =  3 */
(PID.TID 0000.0001)                 4.128416849220377E+03,      /* J =  4 */
(PID.TID 0000.0001)                 4.127164263270209E+03,      /* J =  5 */
(PID.TID 0000.0001)                 4.125910563003906E+03,      /* J =  6 */
(PID.TID 0000.0001)                 4.124655785191007E+03,      /* J =  7 */
(PID.TID 0000.0001)                 4.123399931625523E+03,      /* J =  8 */
(PID.TID 0000.0001)                 4.122142968921520E+03,      /* J =  9 */
(PID.TID 0000.0001)                 4.120884933969184E+03,      /* J = 10 */
(PID.TID 0000.0001)                 4.119625828560444E+03,      /* J = 11 */
(PID.TID 0000.0001)                 4.118365654486509E+03,      /* J = 12 */
(PID.TID 0000.0001)                 4.117104378195548E+03,      /* J = 13 */
(PID.TID 0000.0001)                 4.115842036738223E+03,      /* J = 14 */
(PID.TID 0000.0001)                 4.114578631903650E+03,      /* J = 15 */
(PID.TID 0000.0001)                 4.113314130015837E+03,      /* J = 16 */
(PID.TID 0000.0001)                 4.112048568245555E+03,      /* J = 17 */
(PID.TID 0000.0001)                 4.110781948379812E+03,      /* J = 18 */
(PID.TID 0000.0001)                 4.109514272204890E+03,      /* J = 19 */
(PID.TID 0000.0001)                 4.108245541506343E+03,      /* J = 20 */
(PID.TID 0000.0001)                 4.106975758068988E+03,      /* J = 21 */
(PID.TID 0000.0001)                 4.105704887969090E+03,      /* J = 22 */
(PID.TID 0000.0001)                 4.104432968616856E+03,      /* J = 23 */
(PID.TID 0000.0001)                 4.103160001794981E+03,      /* J = 24 */
(PID.TID 0000.0001)                 4.101885953456212E+03,      /* J = 25 */
(PID.TID 0000.0001)                 4.100610861130162E+03,      /* J = 26 */
(PID.TID 0000.0001)                 4.099334762507415E+03,      /* J = 27 */
(PID.TID 0000.0001)                 4.098057587588119E+03       /* J = 28 */
(PID.TID 0000.0001)     ;
(PID.TID 0000.0001) dyC =  /* dyC(:,1,:,1) ( units: m ) */
(PID.TID 0000.0001)   330 @  3.463587305060435E+03              /* I =  1:330 */
(PID.TID 0000.0001)     ;
(PID.TID 0000.0001) dyC =  /* dyC(1,:,1,:) ( units: m ) */
(PID.TID 0000.0001)                 3.463587305060435E+03,      /* J =  1 */
(PID.TID 0000.0001)                 3.798420889698782E+03,      /* J =  2 */
(PID.TID 0000.0001)                 3.797360618689794E+03,      /* J =  3 */
(PID.TID 0000.0001)                 3.796194320579908E+03,      /* J =  4 */
(PID.TID 0000.0001)                 3.795028022470021E+03,      /* J =  5 */
(PID.TID 0000.0001)                 3.793967751461033E+03,      /* J =  6 */
(PID.TID 0000.0001)                 3.792801453351146E+03,      /* J =  7 */
(PID.TID 0000.0001)                 3.791635155241260E+03,      /* J =  8 */
(PID.TID 0000.0001)                 3.790574884232272E+03,      /* J =  9 */
(PID.TID 0000.0001)                 3.789408586122385E+03,      /* J = 10 */
(PID.TID 0000.0001)                 3.788242288012499E+03,      /* J = 11 */
(PID.TID 0000.0001)                 3.787075989902612E+03,      /* J = 12 */
(PID.TID 0000.0001)                 3.786015718893625E+03,      /* J = 13 */
(PID.TID 0000.0001)                 3.784849420783738E+03,      /* J = 14 */
(PID.TID 0000.0001)                 3.783683122673851E+03,      /* J = 15 */
(PID.TID 0000.0001)                 3.782622851664863E+03,      /* J = 16 */
(PID.TID 0000.0001)                 3.781456553554977E+03,      /* J = 17 */
(PID.TID 0000.0001)                 3.780290255445090E+03,      /* J = 18 */
(PID.TID 0000.0001)                 3.779123957335204E+03,      /* J = 19 */
(PID.TID 0000.0001)                 3.777957659225317E+03,      /* J = 20 */
(PID.TID 0000.0001)                 3.776791361115431E+03,      /* J = 21 */
(PID.TID 0000.0001)                 3.775731090106443E+03,      /* J = 22 */
(PID.TID 0000.0001)                 3.774564791996556E+03,      /* J = 23 */
(PID.TID 0000.0001)                 3.773398493886670E+03,      /* J = 24 */
(PID.TID 0000.0001)                 3.772338222877682E+03,      /* J = 25 */
(PID.TID 0000.0001)                 3.771171924767795E+03,      /* J = 26 */
(PID.TID 0000.0001)                 3.769899599557010E+03,      /* J = 27 */
(PID.TID 0000.0001)                 3.768839328548022E+03       /* J = 28 */
(PID.TID 0000.0001)     ;
(PID.TID 0000.0001) dxV =  /* dxV(:,1,:,1) ( units: m ) */
(PID.TID 0000.0001)   330 @  4.132792266102490E+03              /* I =  1:330 */
(PID.TID 0000.0001)     ;
(PID.TID 0000.0001) dxV =  /* dxV(1,:,1,:) ( units: m ) */
(PID.TID 0000.0001)                 4.132792266102490E+03,      /* J =  1 */
(PID.TID 0000.0001)                 4.131543523884096E+03,      /* J =  2 */
(PID.TID 0000.0001)                 4.130293661329000E+03,      /* J =  3 */
(PID.TID 0000.0001)                 4.129042680111336E+03,      /* J =  4 */
(PID.TID 0000.0001)                 4.127790651895232E+03,      /* J =  5 */
(PID.TID 0000.0001)                 4.126537508526810E+03,      /* J =  6 */
(PID.TID 0000.0001)                 4.125283251678356E+03,      /* J =  7 */
(PID.TID 0000.0001)                 4.124027953257525E+03,      /* J =  8 */
(PID.TID 0000.0001)                 4.122771544862921E+03,      /* J =  9 */
(PID.TID 0000.0001)                 4.121514028164970E+03,      /* J = 10 */
(PID.TID 0000.0001)                 4.120255475314408E+03,      /* J = 11 */
(PID.TID 0000.0001)                 4.118995817662741E+03,      /* J = 12 */
(PID.TID 0000.0001)                 4.117735127522450E+03,      /* J = 13 */
(PID.TID 0000.0001)                 4.116473265355150E+03,      /* J = 14 */
(PID.TID 0000.0001)                 4.115210445004191E+03,      /* J = 15 */
(PID.TID 0000.0001)                 4.113946455960185E+03,      /* J = 16 */
(PID.TID 0000.0001)                 4.112681441584010E+03,      /* J = 17 */
(PID.TID 0000.0001)                 4.111415332734301E+03,      /* J = 18 */
(PID.TID 0000.0001)                 4.110148202207719E+03,      /* J = 19 */
(PID.TID 0000.0001)                 4.108879980698939E+03,      /* J = 20 */
(PID.TID 0000.0001)                 4.107610741165563E+03,      /* J = 21 */
(PID.TID 0000.0001)                 4.106340414138508E+03,      /* J = 22 */
(PID.TID 0000.0001)                 4.105069001279958E+03,      /* J = 23 */
(PID.TID 0000.0001)                 4.103796575788615E+03,      /* J = 24 */
(PID.TID 0000.0001)                 4.102523067950195E+03,      /* J = 25 */
(PID.TID 0000.0001)                 4.101248479424976E+03,      /* J = 26 */
(PID.TID 0000.0001)                 4.099972883652305E+03,      /* J = 27 */
(PID.TID 0000.0001)                 4.098696282533544E+03       /* J = 28 */
(PID.TID 0000.0001)     ;
(PID.TID 0000.0001) dyU =  /* dyU(:,1,:,1) ( units: m ) */
(PID.TID 0000.0001)   330 @  3.463587305060435E+03              /* I =  1:330 */
(PID.TID 0000.0001)     ;
(PID.TID 0000.0001) dyU =  /* dyU(1,:,1,:) ( units: m ) */
(PID.TID 0000.0001)                 3.463587305060435E+03,      /* J =  1 */
(PID.TID 0000.0001)                 3.798420889698782E+03,      /* J =  2 */
(PID.TID 0000.0001)                 3.797360618689794E+03,      /* J =  3 */
(PID.TID 0000.0001)                 3.796194320579908E+03,      /* J =  4 */
(PID.TID 0000.0001)                 3.795028022470021E+03,      /* J =  5 */
(PID.TID 0000.0001)                 3.793967751461033E+03,      /* J =  6 */
(PID.TID 0000.0001)                 3.792801453351146E+03,      /* J =  7 */
(PID.TID 0000.0001)                 3.791635155241260E+03,      /* J =  8 */
(PID.TID 0000.0001)                 3.790574884232272E+03,      /* J =  9 */
(PID.TID 0000.0001)                 3.789408586122385E+03,      /* J = 10 */
(PID.TID 0000.0001)                 3.788242288012499E+03,      /* J = 11 */
(PID.TID 0000.0001)                 3.787075989902612E+03,      /* J = 12 */
(PID.TID 0000.0001)                 3.786015718893625E+03,      /* J = 13 */
(PID.TID 0000.0001)                 3.784849420783738E+03,      /* J = 14 */
(PID.TID 0000.0001)                 3.783683122673851E+03,      /* J = 15 */
(PID.TID 0000.0001)                 3.782622851664863E+03,      /* J = 16 */
(PID.TID 0000.0001)                 3.781456553554977E+03,      /* J = 17 */
(PID.TID 0000.0001)                 3.780290255445090E+03,      /* J = 18 */
(PID.TID 0000.0001)                 3.779123957335204E+03,      /* J = 19 */
(PID.TID 0000.0001)                 3.777957659225317E+03,      /* J = 20 */
(PID.TID 0000.0001)                 3.776791361115431E+03,      /* J = 21 */
(PID.TID 0000.0001)                 3.775731090106443E+03,      /* J = 22 */
(PID.TID 0000.0001)                 3.774564791996556E+03,      /* J = 23 */
(PID.TID 0000.0001)                 3.773398493886670E+03,      /* J = 24 */
(PID.TID 0000.0001)                 3.772338222877682E+03,      /* J = 25 */
(PID.TID 0000.0001)                 3.771171924767795E+03,      /* J = 26 */
(PID.TID 0000.0001)                 3.769899599557010E+03,      /* J = 27 */
(PID.TID 0000.0001)                 3.768839328548022E+03       /* J = 28 */
(PID.TID 0000.0001)     ;
(PID.TID 0000.0001) rA  =  /* rA (:,1,:,1) ( units: m^2 ) */
(PID.TID 0000.0001)   330 @  1.569790392627073E+07              /* I =  1:330 */
(PID.TID 0000.0001)     ;
(PID.TID 0000.0001) rA  =  /* rA (1,:,1,:) ( units: m^2 ) */
(PID.TID 0000.0001)                 1.569790392627073E+07,      /* J =  1 */
(PID.TID 0000.0001)                 1.568877799393386E+07,      /* J =  2 */
(PID.TID 0000.0001)                 1.567965046024477E+07,      /* J =  3 */
(PID.TID 0000.0001)                 1.566964601977351E+07,      /* J =  4 */
(PID.TID 0000.0001)                 1.566051584459966E+07,      /* J =  5 */
(PID.TID 0000.0001)                 1.565138409849535E+07,      /* J =  6 */
(PID.TID 0000.0001)                 1.564137627390480E+07,      /* J =  7 */
(PID.TID 0000.0001)                 1.563224194845815E+07,      /* J =  8 */
(PID.TID 0000.0001)                 1.562310608242249E+07,      /* J =  9 */
(PID.TID 0000.0001)                 1.561309496816712E+07,      /* J = 10 */
(PID.TID 0000.0001)                 1.560395658474481E+07,      /* J = 11 */
(PID.TID 0000.0001)                 1.559394350794555E+07,      /* J = 12 */
(PID.TID 0000.0001)                 1.558567556425542E+07,      /* J = 13 */
(PID.TID 0000.0001)                 1.557478738418195E+07,      /* J = 14 */
(PID.TID 0000.0001)                 1.556651647028628E+07,      /* J = 15 */
(PID.TID 0000.0001)                 1.555649905915226E+07,      /* J = 16 */
(PID.TID 0000.0001)                 1.554735283576100E+07,      /* J = 17 */
(PID.TID 0000.0001)                 1.553733358804201E+07,      /* J = 18 */
(PID.TID 0000.0001)                 1.552818501201680E+07,      /* J = 19 */
(PID.TID 0000.0001)                 1.551816396996124E+07,      /* J = 20 */
(PID.TID 0000.0001)                 1.550901308262007E+07,      /* J = 21 */
(PID.TID 0000.0001)                 1.549986078553674E+07,      /* J = 22 */
(PID.TID 0000.0001)                 1.548983686113863E+07,      /* J = 23 */
(PID.TID 0000.0001)                 1.548068231387437E+07,      /* J = 24 */
(PID.TID 0000.0001)                 1.547152638671146E+07,      /* J = 25 */
(PID.TID 0000.0001)                 1.546149967288220E+07,      /* J = 26 */
(PID.TID 0000.0001)                 1.545147241072469E+07,      /* J = 27 */
(PID.TID 0000.0001)                 1.544318236089779E+07       /* J = 28 */
(PID.TID 0000.0001)     ;
(PID.TID 0000.0001) rAw =  /* rAw(:,1,:,1) ( units: m^2 ) */
(PID.TID 0000.0001)   330 @  1.569790392627073E+07              /* I =  1:330 */
(PID.TID 0000.0001)     ;
(PID.TID 0000.0001) rAw =  /* rAw(1,:,1,:) ( units: m^2 ) */
(PID.TID 0000.0001)                 1.569790392627073E+07,      /* J =  1 */
(PID.TID 0000.0001)                 1.568877799393386E+07,      /* J =  2 */
(PID.TID 0000.0001)                 1.567965046024477E+07,      /* J =  3 */
(PID.TID 0000.0001)                 1.566964601977351E+07,      /* J =  4 */
(PID.TID 0000.0001)                 1.566051584459966E+07,      /* J =  5 */
(PID.TID 0000.0001)                 1.565138409849535E+07,      /* J =  6 */
(PID.TID 0000.0001)                 1.564137627390480E+07,      /* J =  7 */
(PID.TID 0000.0001)                 1.563224194845815E+07,      /* J =  8 */
(PID.TID 0000.0001)                 1.562310608242249E+07,      /* J =  9 */
(PID.TID 0000.0001)                 1.561309496816712E+07,      /* J = 10 */
(PID.TID 0000.0001)                 1.560395658474481E+07,      /* J = 11 */
(PID.TID 0000.0001)                 1.559394350794555E+07,      /* J = 12 */
(PID.TID 0000.0001)                 1.558567556425542E+07,      /* J = 13 */
(PID.TID 0000.0001)                 1.557478738418195E+07,      /* J = 14 */
(PID.TID 0000.0001)                 1.556651647028628E+07,      /* J = 15 */
(PID.TID 0000.0001)                 1.555649905915226E+07,      /* J = 16 */
(PID.TID 0000.0001)                 1.554735283576100E+07,      /* J = 17 */
(PID.TID 0000.0001)                 1.553733358804201E+07,      /* J = 18 */
(PID.TID 0000.0001)                 1.552818501201680E+07,      /* J = 19 */
(PID.TID 0000.0001)                 1.551816396996124E+07,      /* J = 20 */
(PID.TID 0000.0001)                 1.550901308262007E+07,      /* J = 21 */
(PID.TID 0000.0001)                 1.549986078553674E+07,      /* J = 22 */
(PID.TID 0000.0001)                 1.548983686113863E+07,      /* J = 23 */
(PID.TID 0000.0001)                 1.548068231387437E+07,      /* J = 24 */
(PID.TID 0000.0001)                 1.547152638671146E+07,      /* J = 25 */
(PID.TID 0000.0001)                 1.546149967288220E+07,      /* J = 26 */
(PID.TID 0000.0001)                 1.545147241072469E+07,      /* J = 27 */
(PID.TID 0000.0001)                 1.544318236089779E+07       /* J = 28 */
(PID.TID 0000.0001)     ;
(PID.TID 0000.0001) rAs =  /* rAs(:,1,:,1) ( units: m^2 ) */
(PID.TID 0000.0001)   330 @  1.431409585161713E+07              /* I =  1:330 */
(PID.TID 0000.0001)     ;
(PID.TID 0000.0001) rAs =  /* rAs(1,:,1,:) ( units: m^2 ) */
(PID.TID 0000.0001)                 1.431409585161713E+07,      /* J =  1 */
(PID.TID 0000.0001)                 1.569334132646529E+07,      /* J =  2 */
(PID.TID 0000.0001)                 1.568421459236220E+07,      /* J =  3 */
(PID.TID 0000.0001)                 1.567464853779548E+07,      /* J =  4 */
(PID.TID 0000.0001)                 1.566508129518095E+07,      /* J =  5 */
(PID.TID 0000.0001)                 1.565595033345175E+07,      /* J =  6 */
(PID.TID 0000.0001)                 1.564638048044906E+07,      /* J =  7 */
(PID.TID 0000.0001)                 1.563680947081621E+07,      /* J =  8 */
(PID.TID 0000.0001)                 1.562767437398903E+07,      /* J =  9 */
(PID.TID 0000.0001)                 1.561810081601708E+07,      /* J = 10 */
(PID.TID 0000.0001)                 1.560852613273763E+07,      /* J = 11 */
(PID.TID 0000.0001)                 1.559895033469148E+07,      /* J = 12 */
(PID.TID 0000.0001)                 1.558980995703406E+07,      /* J = 13 */
(PID.TID 0000.0001)                 1.558023169331755E+07,      /* J = 14 */
(PID.TID 0000.0001)                 1.557065234602267E+07,      /* J = 15 */
(PID.TID 0000.0001)                 1.556150804841762E+07,      /* J = 16 */
(PID.TID 0000.0001)                 1.555192629706736E+07,      /* J = 17 */
(PID.TID 0000.0001)                 1.554234349323534E+07,      /* J = 18 */
(PID.TID 0000.0001)                 1.553275964738865E+07,      /* J = 19 */
(PID.TID 0000.0001)                 1.552317476996653E+07,      /* J = 20 */
(PID.TID 0000.0001)                 1.551358887140660E+07,      /* J = 21 */
(PID.TID 0000.0001)                 1.550443727811980E+07,      /* J = 22 */
(PID.TID 0000.0001)                 1.549484909883272E+07,      /* J = 23 */
(PID.TID 0000.0001)                 1.548525992931114E+07,      /* J = 24 */
(PID.TID 0000.0001)                 1.547610469102710E+07,      /* J = 25 */
(PID.TID 0000.0001)                 1.546651330181840E+07,      /* J = 26 */
(PID.TID 0000.0001)                 1.545648631260958E+07,      /* J = 27 */
(PID.TID 0000.0001)                 1.544732779090657E+07       /* J = 28 */
(PID.TID 0000.0001)     ;
(PID.TID 0000.0001) globalArea = /* Integrated horizontal Area (m^2) */
(PID.TID 0000.0001)                 1.130115182425400E+13
(PID.TID 0000.0001)     ;
(PID.TID 0000.0001) // =======================================================
(PID.TID 0000.0001) // End of Model config. summary
(PID.TID 0000.0001) // =======================================================
(PID.TID 0000.0001) 
(PID.TID 0000.0001) == Packages configuration : Check & print summary ==
(PID.TID 0000.0001) 
(PID.TID 0000.0001) OBCS_CHECK: #define ALLOW_OBCS
(PID.TID 0000.0001) OBCS_CHECK: start summary:
(PID.TID 0000.0001) useOBCSprescribe = /* prescribe OB values */
(PID.TID 0000.0001)                   T
(PID.TID 0000.0001)     ;
(PID.TID 0000.0001) useOBCSbalance = /* balance the flow through OB */
(PID.TID 0000.0001)                   T
(PID.TID 0000.0001)     ;
(PID.TID 0000.0001) OBCS_balanceFacN = /* Northern OB Factor for balancing OB flow [-] */
(PID.TID 0000.0001)                -1.000000000000000E+00
(PID.TID 0000.0001)     ;
(PID.TID 0000.0001) OBCS_balanceFacS = /* Southern OB Factor for balancing OB flow [-] */
(PID.TID 0000.0001)                -1.000000000000000E+00
(PID.TID 0000.0001)     ;
(PID.TID 0000.0001) OBCS_balanceFacE = /* Eastern  OB Factor for balancing OB flow [-] */
(PID.TID 0000.0001)                -1.000000000000000E+00
(PID.TID 0000.0001)     ;
(PID.TID 0000.0001) OBCS_balanceFacW = /* Western  OB Factor for balancing OB flow [-] */
(PID.TID 0000.0001)                 1.000000000000000E+00
(PID.TID 0000.0001)     ;
(PID.TID 0000.0001) OBCS_uvApplyFac = /* Factor to apply to U,V 2nd column/row */
(PID.TID 0000.0001)                 1.000000000000000E+00
(PID.TID 0000.0001)     ;
(PID.TID 0000.0001) OBCS_u1_adv_T = /* Temp uses upwind adv-scheme @ OB */
(PID.TID 0000.0001)                       1
(PID.TID 0000.0001)     ;
(PID.TID 0000.0001) OBCS_u1_adv_S = /* Salt uses upwind adv-scheme @ OB */
(PID.TID 0000.0001)                       1
(PID.TID 0000.0001)     ;
(PID.TID 0000.0001) OBCS_monitorFreq = /* monitor output frequency [s] */
(PID.TID 0000.0001)                 2.400000000000000E+02
(PID.TID 0000.0001)     ;
(PID.TID 0000.0001) OBCS_monSelect = /* select group of variables to monitor */
(PID.TID 0000.0001)                       3
(PID.TID 0000.0001)     ;
(PID.TID 0000.0001) useOBCStides = /* apply tidal forcing through OB */
(PID.TID 0000.0001)                   T
(PID.TID 0000.0001)     ;
(PID.TID 0000.0001) tidalPeriod = /* (s) */
(PID.TID 0000.0001)                 4.471416500000000E+04,      /* I =  1 */
(PID.TID 0000.0001)                 4.320000100000000E+04,      /* I =  2 */
(PID.TID 0000.0001)                 4.557005400000000E+04,      /* I =  3 */
(PID.TID 0000.0001)                 4.308205000000000E+04,      /* I =  4 */
(PID.TID 0000.0001)                 8.616407700000000E+04,      /* I =  5 */
(PID.TID 0000.0001)                 9.294963600000000E+04,      /* I =  6 */
(PID.TID 0000.0001)                 8.663720000000000E+04,      /* I =  7 */
(PID.TID 0000.0001)                 9.672608600000000E+04,      /* I =  8 */
(PID.TID 0000.0001)                 2.235709100000000E+04,      /* I =  9 */
(PID.TID 0000.0001)                 2.197202200000000E+04,      /* I = 10 */
(PID.TID 0000.0001)                 2.256904200000000E+04,      /* I = 11 */
(PID.TID 0000.0001)                 2.380715864000000E+06,      /* I = 12 */
(PID.TID 0000.0001)                 1.180295546000000E+06       /* I = 13 */
(PID.TID 0000.0001)     ;
(PID.TID 0000.0001) OB_indexNone = /* null value for OB index (i.e. no OB) */
(PID.TID 0000.0001)                     -99
(PID.TID 0000.0001)     ;
(PID.TID 0000.0001) ======== Tile bi=   1 , bj=   1 ========
(PID.TID 0000.0001)  OB_Jn = /* Northern OB local indices */
(PID.TID 0000.0001)    41 @      -99                            /* I = -3: 37 */
(PID.TID 0000.0001)  OB_Js = /* Southern OB local indices */
(PID.TID 0000.0001)     4 @      -99,                           /* I = -3:  0 */
(PID.TID 0000.0001)    33 @        2,                           /* I =  1: 33 */
(PID.TID 0000.0001)     3 @      -99,                           /* I = 34: 36 */
(PID.TID 0000.0001)                       2                     /* I = 37 */
(PID.TID 0000.0001)  OB_Ie = /* Eastern OB local indices */
(PID.TID 0000.0001)    36 @      -99                            /* J = -3: 32 */
(PID.TID 0000.0001)  OB_Iw = /* Western OB local indices */
(PID.TID 0000.0001)    36 @      -99                            /* J = -3: 32 */
(PID.TID 0000.0001) ======== Tile bi=   2 , bj=   1 ========
(PID.TID 0000.0001)  OB_Jn = /* Northern OB local indices */
(PID.TID 0000.0001)    41 @      -99                            /* I = -3: 37 */
(PID.TID 0000.0001)  OB_Js = /* Southern OB local indices */
(PID.TID 0000.0001)     4 @      -99,                           /* I = -3:  0 */
(PID.TID 0000.0001)    37 @        2                            /* I =  1: 37 */
(PID.TID 0000.0001)  OB_Ie = /* Eastern OB local indices */
(PID.TID 0000.0001)    36 @      -99                            /* J = -3: 32 */
(PID.TID 0000.0001)  OB_Iw = /* Western OB local indices */
(PID.TID 0000.0001)    36 @      -99                            /* J = -3: 32 */
(PID.TID 0000.0001) ======== Tile bi=   3 , bj=   1 ========
(PID.TID 0000.0001)  OB_Jn = /* Northern OB local indices */
(PID.TID 0000.0001)    41 @      -99                            /* I = -3: 37 */
(PID.TID 0000.0001)  OB_Js = /* Southern OB local indices */
(PID.TID 0000.0001)    41 @        2                            /* I = -3: 37 */
(PID.TID 0000.0001)  OB_Ie = /* Eastern OB local indices */
(PID.TID 0000.0001)    36 @      -99                            /* J = -3: 32 */
(PID.TID 0000.0001)  OB_Iw = /* Western OB local indices */
(PID.TID 0000.0001)    36 @      -99                            /* J = -3: 32 */
(PID.TID 0000.0001) ======== Tile bi=   4 , bj=   1 ========
(PID.TID 0000.0001)  OB_Jn = /* Northern OB local indices */
(PID.TID 0000.0001)    41 @      -99                            /* I = -3: 37 */
(PID.TID 0000.0001)  OB_Js = /* Southern OB local indices */
(PID.TID 0000.0001)     3 @      -99,                           /* I = -3: -1 */
(PID.TID 0000.0001)    38 @        2                            /* I =  0: 37 */
(PID.TID 0000.0001)  OB_Ie = /* Eastern OB local indices */
(PID.TID 0000.0001)    36 @      -99                            /* J = -3: 32 */
(PID.TID 0000.0001)  OB_Iw = /* Western OB local indices */
(PID.TID 0000.0001)    36 @      -99                            /* J = -3: 32 */
(PID.TID 0000.0001) ======== Tile bi=   5 , bj=   1 ========
(PID.TID 0000.0001)  OB_Jn = /* Northern OB local indices */
(PID.TID 0000.0001)    41 @      -99                            /* I = -3: 37 */
(PID.TID 0000.0001)  OB_Js = /* Southern OB local indices */
(PID.TID 0000.0001)    41 @        2                            /* I = -3: 37 */
(PID.TID 0000.0001)  OB_Ie = /* Eastern OB local indices */
(PID.TID 0000.0001)    36 @      -99                            /* J = -3: 32 */
(PID.TID 0000.0001)  OB_Iw = /* Western OB local indices */
(PID.TID 0000.0001)    36 @      -99                            /* J = -3: 32 */
(PID.TID 0000.0001) ======== Tile bi=   6 , bj=   1 ========
(PID.TID 0000.0001)  OB_Jn = /* Northern OB local indices */
(PID.TID 0000.0001)    41 @      -99                            /* I = -3: 37 */
(PID.TID 0000.0001)  OB_Js = /* Southern OB local indices */
(PID.TID 0000.0001)    41 @        2                            /* I = -3: 37 */
(PID.TID 0000.0001)  OB_Ie = /* Eastern OB local indices */
(PID.TID 0000.0001)    36 @      -99                            /* J = -3: 32 */
(PID.TID 0000.0001)  OB_Iw = /* Western OB local indices */
(PID.TID 0000.0001)    36 @      -99                            /* J = -3: 32 */
(PID.TID 0000.0001) ======== Tile bi=   7 , bj=   1 ========
(PID.TID 0000.0001)  OB_Jn = /* Northern OB local indices */
(PID.TID 0000.0001)    41 @      -99                            /* I = -3: 37 */
(PID.TID 0000.0001)  OB_Js = /* Southern OB local indices */
(PID.TID 0000.0001)    41 @        2                            /* I = -3: 37 */
(PID.TID 0000.0001)  OB_Ie = /* Eastern OB local indices */
(PID.TID 0000.0001)    36 @      -99                            /* J = -3: 32 */
(PID.TID 0000.0001)  OB_Iw = /* Western OB local indices */
(PID.TID 0000.0001)    36 @      -99                            /* J = -3: 32 */
(PID.TID 0000.0001) ======== Tile bi=   8 , bj=   1 ========
(PID.TID 0000.0001)  OB_Jn = /* Northern OB local indices */
(PID.TID 0000.0001)    41 @      -99                            /* I = -3: 37 */
(PID.TID 0000.0001)  OB_Js = /* Southern OB local indices */
(PID.TID 0000.0001)    41 @        2                            /* I = -3: 37 */
(PID.TID 0000.0001)  OB_Ie = /* Eastern OB local indices */
(PID.TID 0000.0001)    36 @      -99                            /* J = -3: 32 */
(PID.TID 0000.0001)  OB_Iw = /* Western OB local indices */
(PID.TID 0000.0001)    36 @      -99                            /* J = -3: 32 */
(PID.TID 0000.0001) ======== Tile bi=   9 , bj=   1 ========
(PID.TID 0000.0001)  OB_Jn = /* Northern OB local indices */
(PID.TID 0000.0001)    41 @      -99                            /* I = -3: 37 */
(PID.TID 0000.0001)  OB_Js = /* Southern OB local indices */
(PID.TID 0000.0001)    41 @        2                            /* I = -3: 37 */
(PID.TID 0000.0001)  OB_Ie = /* Eastern OB local indices */
(PID.TID 0000.0001)    36 @      -99                            /* J = -3: 32 */
(PID.TID 0000.0001)  OB_Iw = /* Western OB local indices */
(PID.TID 0000.0001)    36 @      -99                            /* J = -3: 32 */
(PID.TID 0000.0001) ======== Tile bi=  10 , bj=   1 ========
(PID.TID 0000.0001)  OB_Jn = /* Northern OB local indices */
(PID.TID 0000.0001)    41 @      -99                            /* I = -3: 37 */
(PID.TID 0000.0001)  OB_Js = /* Southern OB local indices */
(PID.TID 0000.0001)    41 @        2                            /* I = -3: 37 */
(PID.TID 0000.0001)  OB_Ie = /* Eastern OB local indices */
(PID.TID 0000.0001)    36 @      -99                            /* J = -3: 32 */
(PID.TID 0000.0001)  OB_Iw = /* Western OB local indices */
(PID.TID 0000.0001)    36 @      -99                            /* J = -3: 32 */
(PID.TID 0000.0001) OBCS_CHECK: end summary.
(PID.TID 0000.0001) OBCS_CHECK: set-up OK
(PID.TID 0000.0001) OBCS_CHECK: check Inside Mask and OB locations: OK
(PID.TID 0000.0001) KPP_CHECK: #define ALLOW_KPP
(PID.TID 0000.0001)  kpp_freq = /* frequency of KPP calculation */
(PID.TID 0000.0001)                 2.400000000000000E+02
(PID.TID 0000.0001)     ;
(PID.TID 0000.0001) KPP_ghatUseTotalDiffus= /* non-local term fct of total diffus */
(PID.TID 0000.0001)                   F
(PID.TID 0000.0001)     ;
(PID.TID 0000.0001) KPPuseDoubleDiff = /* include double diffusive contrib */
(PID.TID 0000.0001)                   F
(PID.TID 0000.0001)     ;
(PID.TID 0000.0001) LimitHblStable = /* limits depth of hbl if stable cond.*/
(PID.TID 0000.0001)                   T
(PID.TID 0000.0001)     ;
(PID.TID 0000.0001)  minKPPhbl = /* minimum KPPhbl value [m] */
(PID.TID 0000.0001)                 2.500000000000000E+00
(PID.TID 0000.0001)     ;
(PID.TID 0000.0001)  epsln     = /* constant [-] */
(PID.TID 0000.0001)                 9.999999999999999E-21
(PID.TID 0000.0001)     ;
(PID.TID 0000.0001)  phepsi    = /* constant [-] */
(PID.TID 0000.0001)                 1.000000000000000E-10
(PID.TID 0000.0001)     ;
(PID.TID 0000.0001)  epsilon   = /* constant [-] */
(PID.TID 0000.0001)                 1.000000000000000E-01
(PID.TID 0000.0001)     ;
(PID.TID 0000.0001)  vonk      = /* Von Karmans constant [-] */
(PID.TID 0000.0001)                 4.000000000000000E-01
(PID.TID 0000.0001)     ;
(PID.TID 0000.0001)  dB_dz     = /* maximum N^2 in mixed layer [s^-2] */
(PID.TID 0000.0001)                 5.200000000000000E-05
(PID.TID 0000.0001)     ;
(PID.TID 0000.0001)  conc1     = /* scalar constant [-] */
(PID.TID 0000.0001)                 5.000000000000000E+00
(PID.TID 0000.0001)     ;
(PID.TID 0000.0001)  conam     = /* scalar constant [-] */
(PID.TID 0000.0001)                 1.257000000000000E+00
(PID.TID 0000.0001)     ;
(PID.TID 0000.0001)  concm     = /* scalar constant [-] */
(PID.TID 0000.0001)                 8.380000000000001E+00
(PID.TID 0000.0001)     ;
(PID.TID 0000.0001)  conc2     = /* scalar constant [-] */
(PID.TID 0000.0001)                 1.600000000000000E+01
(PID.TID 0000.0001)     ;
(PID.TID 0000.0001)  conas     = /* scalar constant [-] */
(PID.TID 0000.0001)                -2.886000000000000E+01
(PID.TID 0000.0001)     ;
(PID.TID 0000.0001)  concs     = /* scalar constant [-] */
(PID.TID 0000.0001)                 9.895999999999999E+01
(PID.TID 0000.0001)     ;
(PID.TID 0000.0001)  conc3     = /* scalar constant [-] */
(PID.TID 0000.0001)                 1.600000000000000E+01
(PID.TID 0000.0001)     ;
(PID.TID 0000.0001)  zetam     = /* scalar constant [-] */
(PID.TID 0000.0001)                -2.000000000000000E-01
(PID.TID 0000.0001)     ;
(PID.TID 0000.0001)  zetas     = /* scalar constant [-] */
(PID.TID 0000.0001)                -1.000000000000000E+00
(PID.TID 0000.0001)     ;
(PID.TID 0000.0001)  Ricr      = /* critical bulk Richardson Number [-] */
(PID.TID 0000.0001)                 3.000000000000000E-01
(PID.TID 0000.0001)     ;
(PID.TID 0000.0001)  cekman    = /* coeff for Ekman depth [-] */
(PID.TID 0000.0001)                 7.000000000000000E-01
(PID.TID 0000.0001)     ;
(PID.TID 0000.0001)  cmonob    = /* coeff for Monin-Obukhov depth [-] */
(PID.TID 0000.0001)                 1.000000000000000E+00
(PID.TID 0000.0001)     ;
(PID.TID 0000.0001)  concv     = /* buoyancy freq ratio [-] */
(PID.TID 0000.0001)                 1.800000000000000E+00
(PID.TID 0000.0001)     ;
(PID.TID 0000.0001)  hbf       = /* solar radiation depth ratio [-] */
(PID.TID 0000.0001)                 1.000000000000000E+00
(PID.TID 0000.0001)     ;
(PID.TID 0000.0001)  zmin      = /* minimum for zehat in table [m3/s3] */
(PID.TID 0000.0001)                -4.000000000000000E-07
(PID.TID 0000.0001)     ;
(PID.TID 0000.0001)  zmax      = /* maximum for zehat in table [m3/s3] */
(PID.TID 0000.0001)                 0.000000000000000E+00
(PID.TID 0000.0001)     ;
(PID.TID 0000.0001)  umin      = /* minimum for ustar in table [m/s] */
(PID.TID 0000.0001)                 0.000000000000000E+00
(PID.TID 0000.0001)     ;
(PID.TID 0000.0001)  umax      = /* maximum for ustar in table [m/s] */
(PID.TID 0000.0001)                 4.000000000000000E-02
(PID.TID 0000.0001)     ;
(PID.TID 0000.0001) num_v_smooth_Ri = /* number of vertical smoothing */
(PID.TID 0000.0001)                       0
(PID.TID 0000.0001)     ;
(PID.TID 0000.0001)  Riinfty   = /* shear instability Ri number limit [-] */
(PID.TID 0000.0001)                 7.000000000000000E-01
(PID.TID 0000.0001)     ;
(PID.TID 0000.0001)  BVSQcon   = /* Brunt-Vaisala squared (=N^2) [s^-2] */
(PID.TID 0000.0001)                -2.000000000000000E-05
(PID.TID 0000.0001)     ;
(PID.TID 0000.0001)  difm0     = /* max viscosity from shear instab. [m2/s] */
(PID.TID 0000.0001)                 5.000000000000000E-03
(PID.TID 0000.0001)     ;
(PID.TID 0000.0001)  difs0     = /* max diffusiv. from shear instab. [m2/s] */
(PID.TID 0000.0001)                 5.000000000000000E-03
(PID.TID 0000.0001)     ;
(PID.TID 0000.0001)  dift0     = /* max diffusiv. from shear instab. [m2/s] */
(PID.TID 0000.0001)                 5.000000000000000E-03
(PID.TID 0000.0001)     ;
(PID.TID 0000.0001)  difmcon   = /* convective viscosity [m2/s] */
(PID.TID 0000.0001)                 1.000000000000000E-01
(PID.TID 0000.0001)     ;
(PID.TID 0000.0001)  difscon   = /* convective diffusiv. [m2/s] */
(PID.TID 0000.0001)                 1.000000000000000E-01
(PID.TID 0000.0001)     ;
(PID.TID 0000.0001)  diftcon   = /* convective diffusiv. [m2/s] */
(PID.TID 0000.0001)                 1.000000000000000E-01
(PID.TID 0000.0001)     ;
(PID.TID 0000.0001)  Rrho0     = /* double diffusion density ratio [-] */
(PID.TID 0000.0001)                 1.900000000000000E+00
(PID.TID 0000.0001)     ;
(PID.TID 0000.0001)  dsfmax    = /* max diffusiv. for salt fingering [m2/s] */
(PID.TID 0000.0001)                 1.000000000000000E-02
(PID.TID 0000.0001)     ;
(PID.TID 0000.0001)  cstar     = /* coeff for non-locak transport [-] */
(PID.TID 0000.0001)                 1.000000000000000E+01
(PID.TID 0000.0001)     ;
(PID.TID 0000.0001) KPPwriteState = /* write KPP fields to file */
(PID.TID 0000.0001)                   F
(PID.TID 0000.0001)     ;
(PID.TID 0000.0001)  kpp_dumpFreq = /* dump freq of KPP output */
(PID.TID 0000.0001)                 0.000000000000000E+00
(PID.TID 0000.0001)     ;
(PID.TID 0000.0001)  kpp_taveFreq = /* time-averaging freq of KPP output */
(PID.TID 0000.0001)                 0.000000000000000E+00
(PID.TID 0000.0001)     ;
(PID.TID 0000.0001) 
(PID.TID 0000.0001) EXF_CHECK: #define ALLOW_EXF
(PID.TID 0000.0001) GAD_CHECK: #define ALLOW_GENERIC_ADVDIFF
(PID.TID 0000.0001) // =======================================================
(PID.TID 0000.0001) // Check Model config. (CONFIG_CHECK):
(PID.TID 0000.0001) // CONFIG_CHECK : Normal End
(PID.TID 0000.0001) // =======================================================
(PID.TID 0000.0001) 
(PID.TID 0000.0001)  MDS_READ_FIELD: opening global file: U0_1815x532x100.bin
(PID.TID 0000.0001)  MDS_READ_FIELD: opening global file: V0_1815x532x100.bin
(PID.TID 0000.0001)  MDS_READ_FIELD: opening global file: T0_1815x532x100.bin
(PID.TID 0000.0001)  MDS_READ_FIELD: opening global file: S0_1815x532x100.bin
(PID.TID 0000.0001) Start initial hydrostatic pressure computation
(PID.TID 0000.0001) Pressure is predetermined for buoyancyRelation OCEANIC
(PID.TID 0000.0001) 
(PID.TID 0000.0001)  write diagnostics summary to file ioUnit:      6
Iter.Nb:         0 ; Time(s):  0.0000000000000E+00
------------------------------------------------------------------------
2D/3D diagnostics: Number of lists:     2
------------------------------------------------------------------------
listId=    1 ; file name: diags/surface
 nFlds, nActive,       freq     &     phase        , nLev               
    5  |    5  |      3600.000000         0.000000 |   1
 levels:   1
 diag# | name   |   ipt  |  iMate | kLev|   count |   mate.C|           
    23 |ETAN    |      1 |      0 |   1 |       0 |
    80 |oceTAUX |      2 |      3 |   1 |       0 |       0 |
    81 |oceTAUY |      3 |      2 |   1 |       0 |       0 |
   185 |EXFuwind|      4 |      0 |   1 |       0 |
   186 |EXFvwind|      5 |      0 |   1 |       0 |
------------------------------------------------------------------------
listId=    2 ; file name: diags/interior
 nFlds, nActive,       freq     &     phase        , nLev               
    9  |    9  |   2592000.000000         0.000000 | 100
 levels:   1   2   3   4   5   6   7   8   9  10  11  12  13  14  15  16  17  18  19  20  21  22  23  24  25
 levels:  26  27  28  29  30  31  32  33  34  35  36  37  38  39  40  41  42  43  44  45  46  47  48  49  50
 levels:  51  52  53  54  55  56  57  58  59  60  61  62  63  64  65  66  67  68  69  70  71  72  73  74  75
 levels:  76  77  78  79  80  81  82  83  84  85  86  87  88  89  90  91  92  93  94  95  96  97  98  99 100
 diag# | name   |   ipt  |  iMate | kLev|   count |   mate.C|           
    26 |THETA   |      6 |      0 | 100 |       0 |
    27 |SALT    |    106 |      0 | 100 |       0 |
    30 |UVEL    |    206 |    306 | 100 |       0 |       0 |
    31 |VVEL    |    306 |    206 | 100 |       0 |       0 |
    32 |WVEL    |    406 |      0 | 100 |       0 |
    36 |UVELSQ  |    506 |    606 | 100 |       0 |       0 |
    37 |VVELSQ  |    606 |    506 | 100 |       0 |       0 |
    52 |WTHMASS |    706 |      0 | 100 |       0 |
    55 |WSLTMASS|    806 |      0 | 100 |       0 |
------------------------------------------------------------------------
Global & Regional Statistics diagnostics: Number of lists:     0
------------------------------------------------------------------------
(PID.TID 0000.0001)  MDS_READ_SEC_XZ: opening global file: OBNvam_1815x13.bin
(PID.TID 0000.0001)  MDS_READ_SEC_XZ: opening global file: OBNvph_1815x13.bin
(PID.TID 0000.0001)  MDS_READ_SEC_XZ: opening global file: OBSvam_1815x13.bin
(PID.TID 0000.0001)  MDS_READ_SEC_XZ: opening global file: OBSvph_1815x13.bin
(PID.TID 0000.0001)  MDS_READ_SEC_YZ: opening global file: OBEuam_532x13.bin
(PID.TID 0000.0001)  MDS_READ_SEC_YZ: opening global file: OBEuph_532x13.bin
(PID.TID 0000.0001)  MDS_READ_SEC_XZ: opening global file: OBNu_1815x100x12.bin
(PID.TID 0000.0001)  MDS_READ_SEC_XZ: opening global file: OBNu_1815x100x12.bin
(PID.TID 0000.0001)  MDS_READ_SEC_XZ: opening global file: OBNv_1815x100x12.bin
(PID.TID 0000.0001)  MDS_READ_SEC_XZ: opening global file: OBNv_1815x100x12.bin
(PID.TID 0000.0001)  MDS_READ_SEC_XZ: opening global file: OBNt_1815x100x12.bin
(PID.TID 0000.0001)  MDS_READ_SEC_XZ: opening global file: OBNt_1815x100x12.bin
(PID.TID 0000.0001)  MDS_READ_SEC_XZ: opening global file: OBNs_1815x100x12.bin
(PID.TID 0000.0001)  MDS_READ_SEC_XZ: opening global file: OBNs_1815x100x12.bin
(PID.TID 0000.0001)  MDS_READ_SEC_XZ: opening global file: OBSu_1815x100x12.bin
(PID.TID 0000.0001)  MDS_READ_SEC_XZ: opening global file: OBSu_1815x100x12.bin
(PID.TID 0000.0001)  MDS_READ_SEC_XZ: opening global file: OBSv_1815x100x12.bin
(PID.TID 0000.0001)  MDS_READ_SEC_XZ: opening global file: OBSv_1815x100x12.bin
(PID.TID 0000.0001)  MDS_READ_SEC_XZ: opening global file: OBSt_1815x100x12.bin
(PID.TID 0000.0001)  MDS_READ_SEC_XZ: opening global file: OBSt_1815x100x12.bin
(PID.TID 0000.0001)  MDS_READ_SEC_XZ: opening global file: OBSs_1815x100x12.bin
(PID.TID 0000.0001)  MDS_READ_SEC_XZ: opening global file: OBSs_1815x100x12.bin
(PID.TID 0000.0001)  MDS_READ_SEC_YZ: opening global file: OBEu_532x100x12.bin
(PID.TID 0000.0001)  MDS_READ_SEC_YZ: opening global file: OBEu_532x100x12.bin
(PID.TID 0000.0001)  MDS_READ_SEC_YZ: opening global file: OBEv_532x100x12.bin
(PID.TID 0000.0001)  MDS_READ_SEC_YZ: opening global file: OBEv_532x100x12.bin
(PID.TID 0000.0001)  MDS_READ_SEC_YZ: opening global file: OBEt_532x100x12.bin
(PID.TID 0000.0001)  MDS_READ_SEC_YZ: opening global file: OBEt_532x100x12.bin
(PID.TID 0000.0001)  MDS_READ_SEC_YZ: opening global file: OBEs_532x100x12.bin
(PID.TID 0000.0001)  MDS_READ_SEC_YZ: opening global file: OBEs_532x100x12.bin
(PID.TID 0000.0001) // =======================================================
(PID.TID 0000.0001) // Model current state
(PID.TID 0000.0001) // =======================================================
(PID.TID 0000.0001) 
(PID.TID 0000.0001) // =======================================================
(PID.TID 0000.0001) // Begin MONITOR dynamic field statistics
(PID.TID 0000.0001) // =======================================================
(PID.TID 0000.0001) %MON time_tsnumber                =                     0
(PID.TID 0000.0001) %MON time_secondsf                =   0.0000000000000E+00
(PID.TID 0000.0001) %MON dynstat_eta_max              =   0.0000000000000E+00
(PID.TID 0000.0001) %MON dynstat_eta_min              =   0.0000000000000E+00
(PID.TID 0000.0001) %MON dynstat_eta_mean             =   0.0000000000000E+00
(PID.TID 0000.0001) %MON dynstat_eta_sd               =   0.0000000000000E+00
(PID.TID 0000.0001) %MON dynstat_eta_del2             =   0.0000000000000E+00
(PID.TID 0000.0001) %MON dynstat_uvel_max             =   5.2282792329788E-01
(PID.TID 0000.0001) %MON dynstat_uvel_min             =  -2.2802972793579E-01
(PID.TID 0000.0001) %MON dynstat_uvel_mean            =   1.1610806737529E-04
(PID.TID 0000.0001) %MON dynstat_uvel_sd              =   1.6676760566744E-02
(PID.TID 0000.0001) %MON dynstat_uvel_del2            =   6.1217098635877E-08
(PID.TID 0000.0001) %MON dynstat_vvel_max             =   6.5957897901535E-01
(PID.TID 0000.0001) %MON dynstat_vvel_min             =  -6.2243117340707E-01
(PID.TID 0000.0001) %MON dynstat_vvel_mean            =  -6.2835592684959E-05
(PID.TID 0000.0001) %MON dynstat_vvel_sd              =   1.6020402375012E-02
(PID.TID 0000.0001) %MON dynstat_vvel_del2            =   1.8505172284860E-07
(PID.TID 0000.0001) %MON dynstat_wvel_max             =   1.9387473555717E-02
(PID.TID 0000.0001) %MON dynstat_wvel_min             =  -2.1709252770318E-02
(PID.TID 0000.0001) %MON dynstat_wvel_mean            =  -1.0348061452432E-05
(PID.TID 0000.0001) %MON dynstat_wvel_sd              =   3.9554741444872E-04
(PID.TID 0000.0001) %MON dynstat_wvel_del2            =   1.3112046358822E-07
(PID.TID 0000.0001) %MON dynstat_theta_max            =   2.5560295104980E+01
(PID.TID 0000.0001) %MON dynstat_theta_min            =   1.4441539049149E+00
(PID.TID 0000.0001) %MON dynstat_theta_mean           =   5.5933489784221E+00
(PID.TID 0000.0001) %MON dynstat_theta_sd             =   4.7972783481870E+00
(PID.TID 0000.0001) %MON dynstat_theta_del2           =   1.4477822133053E-06
(PID.TID 0000.0001) %MON dynstat_salt_max             =   3.8116554260254E+01
(PID.TID 0000.0001) %MON dynstat_salt_min             =   3.0527397155762E+01
(PID.TID 0000.0001) %MON dynstat_salt_mean            =   3.5189810981133E+01
(PID.TID 0000.0001) %MON dynstat_salt_sd              =   4.6939400328071E-01
(PID.TID 0000.0001) %MON dynstat_salt_del2            =   2.6907430530317E-07
(PID.TID 0000.0001) %MON forcing_qnet_max             =   0.0000000000000E+00
(PID.TID 0000.0001) %MON forcing_qnet_min             =   0.0000000000000E+00
(PID.TID 0000.0001) %MON forcing_qnet_mean            =   0.0000000000000E+00
(PID.TID 0000.0001) %MON forcing_qnet_sd              =   0.0000000000000E+00
(PID.TID 0000.0001) %MON forcing_qnet_del2            =   0.0000000000000E+00
(PID.TID 0000.0001) %MON forcing_qsw_max              =   0.0000000000000E+00
(PID.TID 0000.0001) %MON forcing_qsw_min              =   0.0000000000000E+00
(PID.TID 0000.0001) %MON forcing_qsw_mean             =   0.0000000000000E+00
(PID.TID 0000.0001) %MON forcing_qsw_sd               =   0.0000000000000E+00
(PID.TID 0000.0001) %MON forcing_qsw_del2             =   0.0000000000000E+00
(PID.TID 0000.0001) %MON forcing_empmr_max            =   0.0000000000000E+00
(PID.TID 0000.0001) %MON forcing_empmr_min            =   0.0000000000000E+00
(PID.TID 0000.0001) %MON forcing_empmr_mean           =   0.0000000000000E+00
(PID.TID 0000.0001) %MON forcing_empmr_sd             =   0.0000000000000E+00
(PID.TID 0000.0001) %MON forcing_empmr_del2           =   0.0000000000000E+00
(PID.TID 0000.0001) %MON forcing_fu_max               =   0.0000000000000E+00
(PID.TID 0000.0001) %MON forcing_fu_min               =   0.0000000000000E+00
(PID.TID 0000.0001) %MON forcing_fu_mean              =   0.0000000000000E+00
(PID.TID 0000.0001) %MON forcing_fu_sd                =   0.0000000000000E+00
(PID.TID 0000.0001) %MON forcing_fu_del2              =   0.0000000000000E+00
(PID.TID 0000.0001) %MON forcing_fv_max               =   0.0000000000000E+00
(PID.TID 0000.0001) %MON forcing_fv_min               =   0.0000000000000E+00
(PID.TID 0000.0001) %MON forcing_fv_mean              =   0.0000000000000E+00
(PID.TID 0000.0001) %MON forcing_fv_sd                =   0.0000000000000E+00
(PID.TID 0000.0001) %MON forcing_fv_del2              =   0.0000000000000E+00
(PID.TID 0000.0001) %MON trAdv_CFL_u_max              =   0.0000000000000E+00
(PID.TID 0000.0001) %MON trAdv_CFL_v_max              =   0.0000000000000E+00
(PID.TID 0000.0001) %MON trAdv_CFL_w_max              =   0.0000000000000E+00
(PID.TID 0000.0001) %MON advcfl_uvel_max              =   3.3036797041732E-02
(PID.TID 0000.0001) %MON advcfl_vvel_max              =   4.7740509353398E-02
(PID.TID 0000.0001) %MON advcfl_wvel_max              =   2.0840882659505E+00
(PID.TID 0000.0001) %MON advcfl_W_hf_max              =   1.0395083750012E+00
(PID.TID 0000.0001) %MON pe_b_mean                    =   0.0000000000000E+00
(PID.TID 0000.0001) %MON ke_max                       =   2.9942891548615E-01
(PID.TID 0000.0001) %MON ke_mean                      =   2.6524844157123E-04
(PID.TID 0000.0001) %MON ke_vol                       =   4.5818599895265E+16
(PID.TID 0000.0001) %MON vort_r_min                   =  -2.0623315120164E-04
(PID.TID 0000.0001) %MON vort_r_max                   =   2.8320669732846E-04
(PID.TID 0000.0001) %MON vort_a_mean                  =   8.2147589774963E-05
(PID.TID 0000.0001) %MON vort_a_sd                    =   9.7027919192279E-06
(PID.TID 0000.0001) %MON vort_p_mean                  =   8.4848809988661E-05
(PID.TID 0000.0001) %MON vort_p_sd                    =   3.5005405176014E-05
(PID.TID 0000.0001) %MON surfExpan_theta_mean         =  -3.9140729191264E-04
(PID.TID 0000.0001) %MON surfExpan_salt_mean          =  -5.6549665507085E-04
(PID.TID 0000.0001) // =======================================================
(PID.TID 0000.0001) // End MONITOR dynamic field statistics
(PID.TID 0000.0001) // =======================================================
(PID.TID 0000.0001) // =======================================================
(PID.TID 0000.0001) // Begin OBCS MONITOR field statistics
(PID.TID 0000.0001) // =======================================================
(PID.TID 0000.0001) %MON obc_E_uVel_max               =   2.9236185325403E-01
(PID.TID 0000.0001) %MON obc_E_uVel_min               =   3.6734359886903E-02
(PID.TID 0000.0001) %MON obc_E_uVel_mean              =   1.3901302628592E-01
(PID.TID 0000.0001) %MON obc_E_uVel_sd                =   5.6507901487094E-02
(PID.TID 0000.0001) %MON obc_E_uVel_Int               =   1.3282582842740E+06
(PID.TID 0000.0001) %MON obc_N_vVel_max               =   7.5258156558910E-02
(PID.TID 0000.0001) %MON obc_N_vVel_min               =  -6.2243117340707E-01
(PID.TID 0000.0001) %MON obc_N_vVel_mean              =  -5.6547594413999E-03
(PID.TID 0000.0001) %MON obc_N_vVel_sd                =   1.6217011351513E-02
(PID.TID 0000.0001) %MON obc_N_vVel_Int               =  -8.0948359019728E+07
(PID.TID 0000.0001) %MON obc_S_vVel_max               =   6.3716974891375E-01
(PID.TID 0000.0001) %MON obc_S_vVel_min               =  -1.0809461543585E-01
(PID.TID 0000.0001) %MON obc_S_vVel_mean              =  -8.1050269612588E-03
(PID.TID 0000.0001) %MON obc_S_vVel_sd                =   2.0158139868304E-02
(PID.TID 0000.0001) %MON obc_S_vVel_Int               =  -2.4674052262793E+08
(PID.TID 0000.0001) %MON obc_E_theta_max              =   1.7031576156616E+01
(PID.TID 0000.0001) %MON obc_E_theta_min              =   1.2988679885864E+01
(PID.TID 0000.0001) %MON obc_E_theta_mean             =   1.5361316191092E+01
(PID.TID 0000.0001) %MON obc_E_theta_sd               =   1.5938527426439E+00
(PID.TID 0000.0001) %MON obc_N_theta_max              =   1.6146011340789E+01
(PID.TID 0000.0001) %MON obc_N_theta_min              =   1.6881754251476E+00
(PID.TID 0000.0001) %MON obc_N_theta_mean             =   5.2226067393880E+00
(PID.TID 0000.0001) %MON obc_N_theta_sd               =   3.6304230920879E+00
(PID.TID 0000.0001) %MON obc_S_theta_max              =   2.5392561389680E+01
(PID.TID 0000.0001) %MON obc_S_theta_min              =   1.5161810618896E+00
(PID.TID 0000.0001) %MON obc_S_theta_mean             =   5.4082529136101E+00
(PID.TID 0000.0001) %MON obc_S_theta_sd               =   5.1183492362358E+00
(PID.TID 0000.0001) %MON obc_E_salt_max               =   3.8136505126953E+01
(PID.TID 0000.0001) %MON obc_E_salt_min               =   3.5754806518555E+01
(PID.TID 0000.0001) %MON obc_E_salt_mean              =   3.6401586390596E+01
(PID.TID 0000.0001) %MON obc_E_salt_sd                =   4.3532669310507E-01
(PID.TID 0000.0001) %MON obc_N_salt_max               =   3.6395876459517E+01
(PID.TID 0000.0001) %MON obc_N_salt_min               =   3.0617469995174E+01
(PID.TID 0000.0001) %MON obc_N_salt_mean              =   3.5063771734247E+01
(PID.TID 0000.0001) %MON obc_N_salt_sd                =   3.9120235606138E-01
(PID.TID 0000.0001) %MON obc_S_salt_max               =   3.7332523925593E+01
(PID.TID 0000.0001) %MON obc_S_salt_min               =   3.4852181428757E+01
(PID.TID 0000.0001) %MON obc_S_salt_mean              =   3.5186250699819E+01
(PID.TID 0000.0001) %MON obc_S_salt_sd                =   5.1365323877213E-01
(PID.TID 0000.0001) // =======================================================
(PID.TID 0000.0001) // End OBCS MONITOR field statistics
(PID.TID 0000.0001) // =======================================================
(PID.TID 0000.0001)  EXF_INTERP_READ: opening file: era5/ERA5_u10m_2008
(PID.TID 0000.0001)  EXF_INTERP_READ: opening file: era5/ERA5_v10m_2008
(PID.TID 0000.0001)  EXF_INTERP_UV: fileU="era5/ERA5_u10m_2008", rec=     1 , x-Per,P.Sym=    T    T
(PID.TID 0000.0001)  S.edge (j=-1,0,1) : proc= 2.2 1.1 0.0, yIn=  -90.215115  -90.000000  -89.784885
(PID.TID 0000.0001)  N.edge (j=+0,+1,+2) proc= 0.0 1.1 2.2, yIn=   89.784885   90.000000   90.215115
(PID.TID 0000.0001)  EXF_INTERP_READ: opening file: era5/ERA5_u10m_2008
(PID.TID 0000.0001)  EXF_INTERP_READ: opening file: era5/ERA5_v10m_2008
(PID.TID 0000.0001)  EXF_INTERP_UV: fileU="era5/ERA5_u10m_2008", rec=     2 , x-Per,P.Sym=    T    T
(PID.TID 0000.0001)  S.edge (j=-1,0,1) : proc= 2.2 1.1 0.0, yIn=  -90.215115  -90.000000  -89.784885
(PID.TID 0000.0001)  N.edge (j=+0,+1,+2) proc= 0.0 1.1 2.2, yIn=   89.784885   90.000000   90.215115
(PID.TID 0000.0001)  EXF_INTERP_READ: opening file: era5/ERA5_tmp2m_degC_2008
(PID.TID 0000.0001)  EXF_INTERP: file="era5/ERA5_tmp2m_degC_2008", rec=     1 , x-Per,P.Sym=    T    T
(PID.TID 0000.0001)  S.edge (j=-1,0,1) : proc= 2.2 1.1 0.0, yIn=  -90.215115  -90.000000  -89.784885
(PID.TID 0000.0001)  N.edge (j=+0,+1,+2) proc= 0.0 1.1 2.2, yIn=   89.784885   90.000000   90.215115
(PID.TID 0000.0001)  EXF_INTERP_READ: opening file: era5/ERA5_tmp2m_degC_2008
(PID.TID 0000.0001)  EXF_INTERP: file="era5/ERA5_tmp2m_degC_2008", rec=     2 , x-Per,P.Sym=    T    T
(PID.TID 0000.0001)  S.edge (j=-1,0,1) : proc= 2.2 1.1 0.0, yIn=  -90.215115  -90.000000  -89.784885
(PID.TID 0000.0001)  N.edge (j=+0,+1,+2) proc= 0.0 1.1 2.2, yIn=   89.784885   90.000000   90.215115
(PID.TID 0000.0001)  EXF_INTERP_READ: opening file: era5/ERA5_spfh2m_2008
(PID.TID 0000.0001)  EXF_INTERP: file="era5/ERA5_spfh2m_2008", rec=     1 , x-Per,P.Sym=    T    T
(PID.TID 0000.0001)  S.edge (j=-1,0,1) : proc= 2.2 1.1 0.0, yIn=  -90.215115  -90.000000  -89.784885
(PID.TID 0000.0001)  N.edge (j=+0,+1,+2) proc= 0.0 1.1 2.2, yIn=   89.784885   90.000000   90.215115
(PID.TID 0000.0001)  EXF_INTERP_READ: opening file: era5/ERA5_spfh2m_2008
(PID.TID 0000.0001)  EXF_INTERP: file="era5/ERA5_spfh2m_2008", rec=     2 , x-Per,P.Sym=    T    T
(PID.TID 0000.0001)  S.edge (j=-1,0,1) : proc= 2.2 1.1 0.0, yIn=  -90.215115  -90.000000  -89.784885
(PID.TID 0000.0001)  N.edge (j=+0,+1,+2) proc= 0.0 1.1 2.2, yIn=   89.784885   90.000000   90.215115
(PID.TID 0000.0001)  EXF_INTERP_READ: opening file: era5/ERA5_rain_2007
(PID.TID 0000.0001)  EXF_INTERP: file="era5/ERA5_rain_2007", rec=  8760 , x-Per,P.Sym=    T    T
(PID.TID 0000.0001)  S.edge (j=-1,0,1) : proc= 2.2 1.1 0.0, yIn=  -90.215115  -90.000000  -89.784885
(PID.TID 0000.0001)  N.edge (j=+0,+1,+2) proc= 0.0 1.1 2.2, yIn=   89.784885   90.000000   90.215115
(PID.TID 0000.0001)  EXF_INTERP_READ: opening file: era5/ERA5_rain_2008
(PID.TID 0000.0001)  EXF_INTERP: file="era5/ERA5_rain_2008", rec=     1 , x-Per,P.Sym=    T    T
(PID.TID 0000.0001)  S.edge (j=-1,0,1) : proc= 2.2 1.1 0.0, yIn=  -90.215115  -90.000000  -89.784885
(PID.TID 0000.0001)  N.edge (j=+0,+1,+2) proc= 0.0 1.1 2.2, yIn=   89.784885   90.000000   90.215115
(PID.TID 0000.0001)  EXF_INTERP_READ: opening file: era5/ERA5_dsw_2007
(PID.TID 0000.0001)  EXF_INTERP: file="era5/ERA5_dsw_2007", rec=  8760 , x-Per,P.Sym=    T    T
(PID.TID 0000.0001)  S.edge (j=-1,0,1) : proc= 2.2 1.1 0.0, yIn=  -90.215115  -90.000000  -89.784885
(PID.TID 0000.0001)  N.edge (j=+0,+1,+2) proc= 0.0 1.1 2.2, yIn=   89.784885   90.000000   90.215115
(PID.TID 0000.0001)  EXF_INTERP_READ: opening file: era5/ERA5_dsw_2008
(PID.TID 0000.0001)  EXF_INTERP: file="era5/ERA5_dsw_2008", rec=     1 , x-Per,P.Sym=    T    T
(PID.TID 0000.0001)  S.edge (j=-1,0,1) : proc= 2.2 1.1 0.0, yIn=  -90.215115  -90.000000  -89.784885
(PID.TID 0000.0001)  N.edge (j=+0,+1,+2) proc= 0.0 1.1 2.2, yIn=   89.784885   90.000000   90.215115
(PID.TID 0000.0001)  EXF_INTERP_READ: opening file: era5/ERA5_dlw_2007
(PID.TID 0000.0001)  EXF_INTERP: file="era5/ERA5_dlw_2007", rec=  8760 , x-Per,P.Sym=    T    T
(PID.TID 0000.0001)  S.edge (j=-1,0,1) : proc= 2.2 1.1 0.0, yIn=  -90.215115  -90.000000  -89.784885
(PID.TID 0000.0001)  N.edge (j=+0,+1,+2) proc= 0.0 1.1 2.2, yIn=   89.784885   90.000000   90.215115
(PID.TID 0000.0001)  EXF_INTERP_READ: opening file: era5/ERA5_dlw_2008
(PID.TID 0000.0001)  EXF_INTERP: file="era5/ERA5_dlw_2008", rec=     1 , x-Per,P.Sym=    T    T
(PID.TID 0000.0001)  S.edge (j=-1,0,1) : proc= 2.2 1.1 0.0, yIn=  -90.215115  -90.000000  -89.784885
(PID.TID 0000.0001)  N.edge (j=+0,+1,+2) proc= 0.0 1.1 2.2, yIn=   89.784885   90.000000   90.215115
(PID.TID 0000.0001)  EXF_INTERP_READ: opening file: era5/ERA5_pres_2008
(PID.TID 0000.0001)  EXF_INTERP: file="era5/ERA5_pres_2008", rec=     1 , x-Per,P.Sym=    T    T
(PID.TID 0000.0001)  S.edge (j=-1,0,1) : proc= 2.2 1.1 0.0, yIn=  -90.215115  -90.000000  -89.784885
(PID.TID 0000.0001)  N.edge (j=+0,+1,+2) proc= 0.0 1.1 2.2, yIn=   89.784885   90.000000   90.215115
(PID.TID 0000.0001)  EXF_INTERP_READ: opening file: era5/ERA5_pres_2008
(PID.TID 0000.0001)  EXF_INTERP: file="era5/ERA5_pres_2008", rec=     2 , x-Per,P.Sym=    T    T
(PID.TID 0000.0001)  S.edge (j=-1,0,1) : proc= 2.2 1.1 0.0, yIn=  -90.215115  -90.000000  -89.784885
(PID.TID 0000.0001)  N.edge (j=+0,+1,+2) proc= 0.0 1.1 2.2, yIn=   89.784885   90.000000   90.215115
(PID.TID 0000.0001)  EXF_INTERP_READ: opening file: tide_IAU_EARTH_2008
(PID.TID 0000.0001)  EXF_INTERP: file="tide_IAU_EARTH_2008", rec=     1 , x-Per,P.Sym=    T    T
(PID.TID 0000.0001)  S.edge (j=-1,0,1) : proc= 0.2 0.2 0.1, yIn=  -92.000000  -91.000000  -90.000000
(PID.TID 0000.0001)  N.edge (j=+0,+1,+2) proc= 0.1 0.2 0.2, yIn=   90.000000   91.000000   92.000000
(PID.TID 0000.0001)  EXF_INTERP_READ: opening file: tide_IAU_EARTH_2008
(PID.TID 0000.0001)  EXF_INTERP: file="tide_IAU_EARTH_2008", rec=     2 , x-Per,P.Sym=    T    T
(PID.TID 0000.0001)  S.edge (j=-1,0,1) : proc= 0.2 0.2 0.1, yIn=  -92.000000  -91.000000  -90.000000
(PID.TID 0000.0001)  N.edge (j=+0,+1,+2) proc= 0.1 0.2 0.2, yIn=   90.000000   91.000000   92.000000
(PID.TID 0000.0001)  EXF_INTERP_READ: opening file: runoff1p2472-360x180x12.bin
(PID.TID 0000.0001)  EXF_INTERP: file="runoff1p2472-360x180x12.bin", rec=    12 , x-Per,P.Sym=    T    T
(PID.TID 0000.0001)  S.edge (j=-1,0,1) : proc= 2.2 1.1 0.0, yIn=  -90.500000  -90.000000  -89.500000
(PID.TID 0000.0001)  N.edge (j=+0,+1,+2) proc= 0.0 1.1 2.2, yIn=   89.500000   90.000000   90.500000
(PID.TID 0000.0001)  EXF_INTERP_READ: opening file: runoff1p2472-360x180x12.bin
(PID.TID 0000.0001)  EXF_INTERP: file="runoff1p2472-360x180x12.bin", rec=     1 , x-Per,P.Sym=    T    T
(PID.TID 0000.0001)  S.edge (j=-1,0,1) : proc= 2.2 1.1 0.0, yIn=  -90.500000  -90.000000  -89.500000
(PID.TID 0000.0001)  N.edge (j=+0,+1,+2) proc= 0.0 1.1 2.2, yIn=   89.500000   90.000000   90.500000
(PID.TID 0000.0001) // =======================================================
(PID.TID 0000.0001) // Begin MONITOR EXF statistics
(PID.TID 0000.0001) // =======================================================
(PID.TID 0000.0001) %MON exf_tsnumber                 =                     0
(PID.TID 0000.0001) %MON exf_time_sec                 =   0.0000000000000E+00
(PID.TID 0000.0001) %MON exf_ustress_max              =   8.1021563429596E-01
(PID.TID 0000.0001) %MON exf_ustress_min              =  -4.2241132739217E-01
(PID.TID 0000.0001) %MON exf_ustress_mean             =   6.3472608624456E-02
(PID.TID 0000.0001) %MON exf_ustress_sd               =   1.5597633745869E-01
(PID.TID 0000.0001) %MON exf_ustress_del2             =   4.0068349867543E-07
(PID.TID 0000.0001) %MON exf_vstress_max              =   4.5457894513432E-01
(PID.TID 0000.0001) %MON exf_vstress_min              =  -5.7435161332544E-01
(PID.TID 0000.0001) %MON exf_vstress_mean             =   1.0489367952273E-02
(PID.TID 0000.0001) %MON exf_vstress_sd               =   1.0314221287814E-01
(PID.TID 0000.0001) %MON exf_vstress_del2             =   3.5070242592678E-07
(PID.TID 0000.0001) %MON exf_hflux_max                =   7.3936048352197E+02
(PID.TID 0000.0001) %MON exf_hflux_min                =  -2.9380032071170E+02
(PID.TID 0000.0001) %MON exf_hflux_mean               =   2.0676912233601E+02
(PID.TID 0000.0001) %MON exf_hflux_sd                 =   1.2556740007292E+02
(PID.TID 0000.0001) %MON exf_hflux_del2               =   9.5216427852229E-02
(PID.TID 0000.0001) %MON exf_sflux_max                =   1.7927521086833E-07
(PID.TID 0000.0001) %MON exf_sflux_min                =  -7.6722935721296E-07
(PID.TID 0000.0001) %MON exf_sflux_mean               =   1.0485150091874E-09
(PID.TID 0000.0001) %MON exf_sflux_sd                 =   9.6905633971325E-08
(PID.TID 0000.0001) %MON exf_sflux_del2               =   3.8165925857183E-11
(PID.TID 0000.0001) %MON exf_uwind_max                =   1.9263869912902E+01
(PID.TID 0000.0001) %MON exf_uwind_min                =  -1.5159632394073E+01
(PID.TID 0000.0001) %MON exf_uwind_mean               =   2.5025560084425E+00
(PID.TID 0000.0001) %MON exf_uwind_sd                 =   6.6891015423226E+00
(PID.TID 0000.0001) %MON exf_uwind_del2               =   2.8514371367518E-03
(PID.TID 0000.0001) %MON exf_vwind_max                =   1.4876834219800E+01
(PID.TID 0000.0001) %MON exf_vwind_min                =  -1.2839355843636E+01
(PID.TID 0000.0001) %MON exf_vwind_mean               =   8.3785764116539E-01
(PID.TID 0000.0001) %MON exf_vwind_sd                 =   5.2440109882265E+00
(PID.TID 0000.0001) %MON exf_vwind_del2               =   2.1092806728281E-03
(PID.TID 0000.0001) %MON exf_wspeed_max               =   2.0608268959653E+01
(PID.TID 0000.0001) %MON exf_wspeed_min               =   1.0981558127454E-02
(PID.TID 0000.0001) %MON exf_wspeed_mean              =   7.7641463718592E+00
(PID.TID 0000.0001) %MON exf_wspeed_sd                =   4.3504659298447E+00
(PID.TID 0000.0001) %MON exf_wspeed_del2              =   3.5464119785221E-03
(PID.TID 0000.0001) %MON exf_atemp_max                =   2.9817782416526E+02
(PID.TID 0000.0001) %MON exf_atemp_min                =   2.7455175867563E+02
(PID.TID 0000.0001) %MON exf_atemp_mean               =   2.9070230499709E+02
(PID.TID 0000.0001) %MON exf_atemp_sd                 =   3.9453583414049E+00
(PID.TID 0000.0001) %MON exf_atemp_del2               =   6.8499554794813E-03
(PID.TID 0000.0001) %MON exf_aqh_max                  =   1.6822475533329E-02
(PID.TID 0000.0001) %MON exf_aqh_min                  =   2.7400629324803E-03
(PID.TID 0000.0001) %MON exf_aqh_mean                 =   9.4288276119496E-03
(PID.TID 0000.0001) %MON exf_aqh_sd                   =   2.8741834372286E-03
(PID.TID 0000.0001) %MON exf_aqh_del2                 =   3.7537639203901E-06
(PID.TID 0000.0001) %MON exf_lwflux_max               =   1.5976997007609E+02
(PID.TID 0000.0001) %MON exf_lwflux_min               =   1.4353708850643E+01
(PID.TID 0000.0001) %MON exf_lwflux_mean              =   6.6584810031915E+01
(PID.TID 0000.0001) %MON exf_lwflux_sd                =   2.0562693084525E+01
(PID.TID 0000.0001) %MON exf_lwflux_del2              =   2.6846453726029E-02
(PID.TID 0000.0001) %MON exf_evap_max                 =   1.9871244905221E-07
(PID.TID 0000.0001) %MON exf_evap_min                 =  -1.0194167551320E-07
(PID.TID 0000.0001) %MON exf_evap_mean                =   4.9802999204285E-08
(PID.TID 0000.0001) %MON exf_evap_sd                  =   3.9271298048562E-08
(PID.TID 0000.0001) %MON exf_evap_del2                =   2.5058379749045E-11
(PID.TID 0000.0001) %MON exf_precip_max               =   9.4246541647784E-07
(PID.TID 0000.0001) %MON exf_precip_min               =   0.0000000000000E+00
(PID.TID 0000.0001) %MON exf_precip_mean              =   4.7166123983132E-08
(PID.TID 0000.0001) %MON exf_precip_sd                =   9.2959476212751E-08
(PID.TID 0000.0001) %MON exf_precip_del2              =   4.1546038816826E-11
(PID.TID 0000.0001) %MON exf_swflux_max               =   0.0000000000000E+00
(PID.TID 0000.0001) %MON exf_swflux_min               =   0.0000000000000E+00
(PID.TID 0000.0001) %MON exf_swflux_mean              =   0.0000000000000E+00
(PID.TID 0000.0001) %MON exf_swflux_sd                =   0.0000000000000E+00
(PID.TID 0000.0001) %MON exf_swflux_del2              =   0.0000000000000E+00
(PID.TID 0000.0001) %MON exf_swdown_max               =   0.0000000000000E+00
(PID.TID 0000.0001) %MON exf_swdown_min               =   0.0000000000000E+00
(PID.TID 0000.0001) %MON exf_swdown_mean              =   0.0000000000000E+00
(PID.TID 0000.0001) %MON exf_swdown_sd                =   0.0000000000000E+00
(PID.TID 0000.0001) %MON exf_swdown_del2              =   0.0000000000000E+00
(PID.TID 0000.0001) %MON exf_lwdown_max               =   3.9820518771429E+02
(PID.TID 0000.0001) %MON exf_lwdown_min               =   2.2735753040754E+02
(PID.TID 0000.0001) %MON exf_lwdown_mean              =   3.4366023587139E+02
(PID.TID 0000.0001) %MON exf_lwdown_sd                =   2.5520115853484E+01
(PID.TID 0000.0001) %MON exf_lwdown_del2              =   1.3287867915757E-01
(PID.TID 0000.0001) %MON exf_apressure_max            =   1.0278540583118E+05
(PID.TID 0000.0001) %MON exf_apressure_min            =   9.9972821377996E+04
(PID.TID 0000.0001) %MON exf_apressure_mean           =   1.0215906790274E+05
(PID.TID 0000.0001) %MON exf_apressure_sd             =   5.0098512440790E+02
(PID.TID 0000.0001) %MON exf_apressure_del2           =   3.9518002067505E+01
(PID.TID 0000.0001) %MON exf_runoff_max               =   4.4374791284855E-08
(PID.TID 0000.0001) %MON exf_runoff_min               =   0.0000000000000E+00
(PID.TID 0000.0001) %MON exf_runoff_mean              =   1.5883602119650E-09
(PID.TID 0000.0001) %MON exf_runoff_sd                =   5.3902197283252E-09
(PID.TID 0000.0001) %MON exf_runoff_del2              =   2.2191549266395E-12
(PID.TID 0000.0001) // =======================================================
(PID.TID 0000.0001) // End MONITOR EXF statistics
(PID.TID 0000.0001) // =======================================================
(PID.TID 0000.0001) SOLVE_FOR_PRESSURE: putPmEinXvector =    F
 cg2d: Sum(rhs),rhsMax =   9.74330417376397E+01  1.27134122993719E-01
(PID.TID 0000.0001)      cg2d_init_res =   5.06270164085516E+00
(PID.TID 0000.0001)      cg2d_iters(min,last) =      -1     317
(PID.TID 0000.0001)      cg2d_last_res =   6.79636082429710E-12
(PID.TID 0000.0001) // =======================================================
(PID.TID 0000.0001) // Begin MONITOR dynamic field statistics
(PID.TID 0000.0001) // =======================================================
(PID.TID 0000.0001) %MON time_tsnumber                =                     1
(PID.TID 0000.0001) %MON time_secondsf                =   2.4000000000000E+02
(PID.TID 0000.0001) %MON dynstat_eta_max              =   1.3154534601794E+00
(PID.TID 0000.0001) %MON dynstat_eta_min              =  -6.9101734134143E-01
(PID.TID 0000.0001) %MON dynstat_eta_mean             =  -3.3135069188354E-03
(PID.TID 0000.0001) %MON dynstat_eta_sd               =   3.1396455335583E-02
(PID.TID 0000.0001) %MON dynstat_eta_del2             =   3.2994179292201E-06
(PID.TID 0000.0001) %MON dynstat_uvel_max             =   5.2965692003458E-01
(PID.TID 0000.0001) %MON dynstat_uvel_min             =  -2.3125857859423E-01
(PID.TID 0000.0001) %MON dynstat_uvel_mean            =   3.2734900781921E-06
(PID.TID 0000.0001) %MON dynstat_uvel_sd              =   1.6821760013643E-02
(PID.TID 0000.0001) %MON dynstat_uvel_del2            =   8.9693185588458E-08
(PID.TID 0000.0001) %MON dynstat_vvel_max             =   6.5549963126223E-01
(PID.TID 0000.0001) %MON dynstat_vvel_min             =  -6.1186512132881E-01
(PID.TID 0000.0001) %MON dynstat_vvel_mean            =  -7.9860622531997E-04
(PID.TID 0000.0001) %MON dynstat_vvel_sd              =   1.5955949097586E-02
(PID.TID 0000.0001) %MON dynstat_vvel_del2            =   1.0428325280539E-07
(PID.TID 0000.0001) %MON dynstat_wvel_max             =   6.3051266526116E-03
(PID.TID 0000.0001) %MON dynstat_wvel_min             =  -7.4350958086583E-03
(PID.TID 0000.0001) %MON dynstat_wvel_mean            =  -9.7656277508434E-06
(PID.TID 0000.0001) %MON dynstat_wvel_sd              =   9.7272914921837E-05
(PID.TID 0000.0001) %MON dynstat_wvel_del2            =   1.1892127139536E-08
(PID.TID 0000.0001) %MON dynstat_theta_max            =   2.5556837010390E+01
(PID.TID 0000.0001) %MON dynstat_theta_min            =   1.4441539087907E+00
(PID.TID 0000.0001) %MON dynstat_theta_mean           =   5.5933622317982E+00
(PID.TID 0000.0001) %MON dynstat_theta_sd             =   4.7972960856165E+00
(PID.TID 0000.0001) %MON dynstat_theta_del2           =   1.4658933910531E-06
(PID.TID 0000.0001) %MON dynstat_salt_max             =   3.8099044024871E+01
(PID.TID 0000.0001) %MON dynstat_salt_min             =   3.0528132213283E+01
(PID.TID 0000.0001) %MON dynstat_salt_mean            =   3.5189813058142E+01
(PID.TID 0000.0001) %MON dynstat_salt_sd              =   4.6939799526518E-01
(PID.TID 0000.0001) %MON dynstat_salt_del2            =   2.6980016089241E-07
(PID.TID 0000.0001) %MON forcing_qnet_max             =   7.5115845500409E+02
(PID.TID 0000.0001) %MON forcing_qnet_min             =  -2.9961192685568E+02
(PID.TID 0000.0001) %MON forcing_qnet_mean            =   2.0735719260615E+02
(PID.TID 0000.0001) %MON forcing_qnet_sd              =   1.2821265813263E+02
(PID.TID 0000.0001) %MON forcing_qnet_del2            =   9.1439010385755E-04
(PID.TID 0000.0001) %MON forcing_qsw_max              =   0.0000000000000E+00
(PID.TID 0000.0001) %MON forcing_qsw_min              =   0.0000000000000E+00
(PID.TID 0000.0001) %MON forcing_qsw_mean             =   0.0000000000000E+00
(PID.TID 0000.0001) %MON forcing_qsw_sd               =   0.0000000000000E+00
(PID.TID 0000.0001) %MON forcing_qsw_del2             =   0.0000000000000E+00
(PID.TID 0000.0001) %MON forcing_empmr_max            =   1.7927521086833E-04
(PID.TID 0000.0001) %MON forcing_empmr_min            =  -7.6722935721296E-04
(PID.TID 0000.0001) %MON forcing_empmr_mean           =   1.0485150091874E-06
(PID.TID 0000.0001) %MON forcing_empmr_sd             =   9.6905633971325E-05
(PID.TID 0000.0001) %MON forcing_empmr_del2           =   2.4454282252782E-09
(PID.TID 0000.0001) %MON forcing_fu_max               =   8.0989222810970E-01
(PID.TID 0000.0001) %MON forcing_fu_min               =  -4.2225795164563E-01
(PID.TID 0000.0001) %MON forcing_fu_mean              =   6.3527286793107E-02
(PID.TID 0000.0001) %MON forcing_fu_sd                =   1.5603122057791E-01
(PID.TID 0000.0001) %MON forcing_fu_del2              =   3.8527359120972E-07
(PID.TID 0000.0001) %MON forcing_fv_max               =   4.5438798783925E-01
(PID.TID 0000.0001) %MON forcing_fv_min               =  -5.7551322878924E-01
(PID.TID 0000.0001) %MON forcing_fv_mean              =   1.0469811258792E-02
(PID.TID 0000.0001) %MON forcing_fv_sd                =   1.0326725106256E-01
(PID.TID 0000.0001) %MON forcing_fv_del2              =   3.2551126208496E-07
(PID.TID 0000.0001) %MON trAdv_CFL_u_max              =   3.3506931442646E-02
(PID.TID 0000.0001) %MON trAdv_CFL_v_max              =   4.6928284193512E-02
(PID.TID 0000.0001) %MON trAdv_CFL_w_max              =   3.5688459881560E-01
(PID.TID 0000.0001) %MON advcfl_uvel_max              =   3.3506931021426E-02
(PID.TID 0000.0001) %MON advcfl_vvel_max              =   4.6930092507935E-02
(PID.TID 0000.0001) %MON advcfl_wvel_max              =   5.2618138407176E-01
(PID.TID 0000.0001) %MON advcfl_W_hf_max              =   3.5688459881560E-01
(PID.TID 0000.0001) %MON pe_b_mean                    =  -8.0362869302410E-05
(PID.TID 0000.0001) %MON ke_max                       =   3.0047158151689E-01
(PID.TID 0000.0001) %MON ke_mean                      =   2.6694433558120E-04
(PID.TID 0000.0001) %MON ke_vol                       =   4.5818599895265E+16
(PID.TID 0000.0001) %MON vort_r_min                   =  -2.3428916911544E-04
(PID.TID 0000.0001) %MON vort_r_max                   =   2.8446395364837E-04
(PID.TID 0000.0001) %MON vort_a_mean                  =   8.2147589877703E-05
(PID.TID 0000.0001) %MON vort_a_sd                    =   9.7028919571421E-06
(PID.TID 0000.0001) %MON vort_p_mean                  =   8.4848810094779E-05
(PID.TID 0000.0001) %MON vort_p_sd                    =   3.5003831842847E-05
(PID.TID 0000.0001) %MON surfExpan_theta_mean         =  -3.3935091176450E-04
(PID.TID 0000.0001) %MON surfExpan_salt_mean          =  -5.2367429879440E-04
(PID.TID 0000.0001) // =======================================================
(PID.TID 0000.0001) // End MONITOR dynamic field statistics
(PID.TID 0000.0001) // =======================================================
(PID.TID 0000.0001) // =======================================================
(PID.TID 0000.0001) // Begin OBCS MONITOR field statistics
(PID.TID 0000.0001) // =======================================================
(PID.TID 0000.0001) %MON obc_E_uVel_max               =   2.8340348564138E-01
(PID.TID 0000.0001) %MON obc_E_uVel_min               =   3.5157742494761E-02
(PID.TID 0000.0001) %MON obc_E_uVel_mean              =   1.3498574679972E-01
(PID.TID 0000.0001) %MON obc_E_uVel_sd                =   5.5578610657810E-02
(PID.TID 0000.0001) %MON obc_E_uVel_Int               =   1.2897779527285E+06
(PID.TID 0000.0001) %MON obc_N_vVel_max               =   7.5135590585408E-02
(PID.TID 0000.0001) %MON obc_N_vVel_min               =  -6.1186512132881E-01
(PID.TID 0000.0001) %MON obc_N_vVel_mean              =  -5.8118498326207E-03
(PID.TID 0000.0001) %MON obc_N_vVel_sd                =   1.6316751427234E-02
(PID.TID 0000.0001) %MON obc_N_vVel_Int               =  -8.3197121238327E+07
(PID.TID 0000.0001) %MON obc_S_vVel_max               =   6.3812291474383E-01
(PID.TID 0000.0001) %MON obc_S_vVel_min               =  -1.0796423423378E-01
(PID.TID 0000.0001) %MON obc_S_vVel_mean              =  -7.8157533944075E-03
(PID.TID 0000.0001) %MON obc_S_vVel_sd                =   2.0147939120874E-02
(PID.TID 0000.0001) %MON obc_S_vVel_Int               =  -2.3793419645425E+08
(PID.TID 0000.0001) %MON obc_E_theta_max              =   1.7031576156616E+01
(PID.TID 0000.0001) %MON obc_E_theta_min              =   1.2988679885864E+01
(PID.TID 0000.0001) %MON obc_E_theta_mean             =   1.5361316191092E+01
(PID.TID 0000.0001) %MON obc_E_theta_sd               =   1.5938527426439E+00
(PID.TID 0000.0001) %MON obc_N_theta_max              =   1.6146016932197E+01
(PID.TID 0000.0001) %MON obc_N_theta_min              =   1.6881067509470E+00
(PID.TID 0000.0001) %MON obc_N_theta_mean             =   5.2226048130993E+00
(PID.TID 0000.0001) %MON obc_N_theta_sd               =   3.6304193068449E+00
(PID.TID 0000.0001) %MON obc_S_theta_max              =   2.5392549112500E+01
(PID.TID 0000.0001) %MON obc_S_theta_min              =   1.5161810401746E+00
(PID.TID 0000.0001) %MON obc_S_theta_mean             =   5.4082519924622E+00
(PID.TID 0000.0001) %MON obc_S_theta_sd               =   5.1183460407734E+00
(PID.TID 0000.0001) %MON obc_E_salt_max               =   3.8136505126953E+01
(PID.TID 0000.0001) %MON obc_E_salt_min               =   3.5754806518555E+01
(PID.TID 0000.0001) %MON obc_E_salt_mean              =   3.6401586390596E+01
(PID.TID 0000.0001) %MON obc_E_salt_sd                =   4.3532669310507E-01
(PID.TID 0000.0001) %MON obc_N_salt_max               =   3.6395877802973E+01
(PID.TID 0000.0001) %MON obc_N_salt_min               =   3.0617486558775E+01
(PID.TID 0000.0001) %MON obc_N_salt_mean              =   3.5063771804599E+01
(PID.TID 0000.0001) %MON obc_N_salt_sd                =   3.9120198393987E-01
(PID.TID 0000.0001) %MON obc_S_salt_max               =   3.7332514546469E+01
(PID.TID 0000.0001) %MON obc_S_salt_min               =   3.4852181427016E+01
(PID.TID 0000.0001) %MON obc_S_salt_mean              =   3.5186250740315E+01
(PID.TID 0000.0001) %MON obc_S_salt_sd                =   5.1365332485694E-01
(PID.TID 0000.0001) // =======================================================
(PID.TID 0000.0001) // End OBCS MONITOR field statistics
(PID.TID 0000.0001) // =======================================================
(PID.TID 0000.0001) // =======================================================
(PID.TID 0000.0001) // Begin MONITOR EXF statistics
(PID.TID 0000.0001) // =======================================================
(PID.TID 0000.0001) %MON exf_tsnumber                 =                     1
(PID.TID 0000.0001) %MON exf_time_sec                 =   2.4000000000000E+02
(PID.TID 0000.0001) %MON exf_ustress_max              =   8.0313108752734E-01
(PID.TID 0000.0001) %MON exf_ustress_min              =  -4.1865957657070E-01
(PID.TID 0000.0001) %MON exf_ustress_mean             =   6.3320324843252E-02
(PID.TID 0000.0001) %MON exf_ustress_sd               =   1.5522166841072E-01
(PID.TID 0000.0001) %MON exf_ustress_del2             =   3.7254550657833E-07
(PID.TID 0000.0001) %MON exf_vstress_max              =   4.4205992105868E-01
(PID.TID 0000.0001) %MON exf_vstress_min              =  -5.7071345629569E-01
(PID.TID 0000.0001) %MON exf_vstress_mean             =   1.0430904054070E-02
(PID.TID 0000.0001) %MON exf_vstress_sd               =   1.0244118146499E-01
(PID.TID 0000.0001) %MON exf_vstress_del2             =   3.1935063022116E-07
(PID.TID 0000.0001) %MON exf_hflux_max                =   7.3084018533617E+02
(PID.TID 0000.0001) %MON exf_hflux_min                =  -2.9069103847375E+02
(PID.TID 0000.0001) %MON exf_hflux_mean               =   2.0581082733741E+02
(PID.TID 0000.0001) %MON exf_hflux_sd                 =   1.2466460379863E+02
(PID.TID 0000.0001) %MON exf_hflux_del2               =   9.4702033118254E-02
(PID.TID 0000.0001) %MON exf_sflux_max                =   1.7776391459370E-07
(PID.TID 0000.0001) %MON exf_sflux_min                =  -8.9240447324666E-07
(PID.TID 0000.0001) %MON exf_sflux_mean               =   1.9064609905149E-09
(PID.TID 0000.0001) %MON exf_sflux_sd                 =   9.7567459863893E-08
(PID.TID 0000.0001) %MON exf_sflux_del2               =   3.8564859035978E-11
(PID.TID 0000.0001) %MON exf_uwind_max                =   1.9198144880586E+01
(PID.TID 0000.0001) %MON exf_uwind_min                =  -1.5113532113870E+01
(PID.TID 0000.0001) %MON exf_uwind_mean               =   2.5023976265141E+00
(PID.TID 0000.0001) %MON exf_uwind_sd                 =   6.6808279337900E+00
(PID.TID 0000.0001) %MON exf_uwind_del2               =   2.8482309213738E-03
(PID.TID 0000.0001) %MON exf_vwind_max                =   1.4736391701760E+01
(PID.TID 0000.0001) %MON exf_vwind_min                =  -1.2816449821367E+01
(PID.TID 0000.0001) %MON exf_vwind_mean               =   8.3934410694460E-01
(PID.TID 0000.0001) %MON exf_vwind_sd                 =   5.2295489368443E+00
(PID.TID 0000.0001) %MON exf_vwind_del2               =   2.1039162529058E-03
(PID.TID 0000.0001) %MON exf_wspeed_max               =   2.0534084275888E+01
(PID.TID 0000.0001) %MON exf_wspeed_min               =   1.0095416372240E-02
(PID.TID 0000.0001) %MON exf_wspeed_mean              =   7.7520402700573E+00
(PID.TID 0000.0001) %MON exf_wspeed_sd                =   4.3421202224505E+00
(PID.TID 0000.0001) %MON exf_wspeed_del2              =   3.5406689593742E-03
(PID.TID 0000.0001) %MON exf_atemp_max                =   2.9817562687684E+02
(PID.TID 0000.0001) %MON exf_atemp_min                =   2.7452615746699E+02
(PID.TID 0000.0001) %MON exf_atemp_mean               =   2.9069918410958E+02
(PID.TID 0000.0001) %MON exf_atemp_sd                 =   3.9446796157684E+00
(PID.TID 0000.0001) %MON exf_atemp_del2               =   6.8486623388551E-03
(PID.TID 0000.0001) %MON exf_aqh_max                  =   1.6815489232455E-02
(PID.TID 0000.0001) %MON exf_aqh_min                  =   2.7377682347164E-03
(PID.TID 0000.0001) %MON exf_aqh_mean                 =   9.4276392609959E-03
(PID.TID 0000.0001) %MON exf_aqh_sd                   =   2.8735044858629E-03
(PID.TID 0000.0001) %MON exf_aqh_del2                 =   3.7531433245722E-06
(PID.TID 0000.0001) %MON exf_lwflux_max               =   1.5932026242635E+02
(PID.TID 0000.0001) %MON exf_lwflux_min               =   1.4332875532828E+01
(PID.TID 0000.0001) %MON exf_lwflux_mean              =   6.5804922945867E+01
(PID.TID 0000.0001) %MON exf_lwflux_sd                =   2.0573995640426E+01
(PID.TID 0000.0001) %MON exf_lwflux_del2              =   2.6553060862581E-02
(PID.TID 0000.0001) %MON exf_evap_max                 =   1.9751808062211E-07
(PID.TID 0000.0001) %MON exf_evap_min                 =  -1.0075785128285E-07
(PID.TID 0000.0001) %MON exf_evap_mean                =   4.9737047248691E-08
(PID.TID 0000.0001) %MON exf_evap_sd                  =   3.9130747762277E-08
(PID.TID 0000.0001) %MON exf_evap_del2                =   2.5004133270784E-11
(PID.TID 0000.0001) %MON exf_precip_max               =   1.0681274720082E-06
(PID.TID 0000.0001) %MON exf_precip_min               =   0.0000000000000E+00
(PID.TID 0000.0001) %MON exf_precip_mean              =   4.6242226046212E-08
(PID.TID 0000.0001) %MON exf_precip_sd                =   9.5181245838356E-08
(PID.TID 0000.0001) %MON exf_precip_del2              =   4.2340542720695E-11
(PID.TID 0000.0001) %MON exf_swflux_max               =   0.0000000000000E+00
(PID.TID 0000.0001) %MON exf_swflux_min               =   0.0000000000000E+00
(PID.TID 0000.0001) %MON exf_swflux_mean              =   0.0000000000000E+00
(PID.TID 0000.0001) %MON exf_swflux_sd                =   0.0000000000000E+00
(PID.TID 0000.0001) %MON exf_swflux_del2              =   0.0000000000000E+00
(PID.TID 0000.0001) %MON exf_swdown_max               =   0.0000000000000E+00
(PID.TID 0000.0001) %MON exf_swdown_min               =   0.0000000000000E+00
(PID.TID 0000.0001) %MON exf_swdown_mean              =   0.0000000000000E+00
(PID.TID 0000.0001) %MON exf_swdown_sd                =   0.0000000000000E+00
(PID.TID 0000.0001) %MON exf_swdown_del2              =   0.0000000000000E+00
(PID.TID 0000.0001) %MON exf_lwdown_max               =   3.9865640868250E+02
(PID.TID 0000.0001) %MON exf_lwdown_min               =   2.2781411885010E+02
(PID.TID 0000.0001) %MON exf_lwdown_mean              =   3.4445428923745E+02
(PID.TID 0000.0001) %MON exf_lwdown_sd                =   2.5672897425299E+01
(PID.TID 0000.0001) %MON exf_lwdown_del2              =   1.3319357191491E-01
(PID.TID 0000.0001) %MON exf_apressure_max            =   1.0278691686358E+05
(PID.TID 0000.0001) %MON exf_apressure_min            =   9.9978539078627E+04
(PID.TID 0000.0001) %MON exf_apressure_mean           =   1.0215984527369E+05
(PID.TID 0000.0001) %MON exf_apressure_sd             =   5.0058477438525E+02
(PID.TID 0000.0001) %MON exf_apressure_del2           =   3.9518308930154E+01
(PID.TID 0000.0001) %MON exf_runoff_max               =   4.4374791284855E-08
(PID.TID 0000.0001) %MON exf_runoff_min               =   0.0000000000000E+00
(PID.TID 0000.0001) %MON exf_runoff_mean              =   1.5883602119650E-09
(PID.TID 0000.0001) %MON exf_runoff_sd                =   5.3902197283252E-09
(PID.TID 0000.0001) %MON exf_runoff_del2              =   2.2191549266395E-12
(PID.TID 0000.0001) // =======================================================
(PID.TID 0000.0001) // End MONITOR EXF statistics
(PID.TID 0000.0001) // =======================================================
 cg2d: Sum(rhs),rhsMax =   1.87822334977410E+02  5.69625134628858E-02
(PID.TID 0000.0001)      cg2d_init_res =   4.86664294851990E+00
(PID.TID 0000.0001)      cg2d_iters(min,last) =      -1     316
(PID.TID 0000.0001)      cg2d_last_res =   6.53802075167743E-12
(PID.TID 0000.0001) // =======================================================
(PID.TID 0000.0001) // Begin MONITOR dynamic field statistics
(PID.TID 0000.0001) // =======================================================
(PID.TID 0000.0001) %MON time_tsnumber                =                     2
(PID.TID 0000.0001) %MON time_secondsf                =   4.8000000000000E+02
(PID.TID 0000.0001) %MON dynstat_eta_max              =   1.5504784777707E+00
(PID.TID 0000.0001) %MON dynstat_eta_min              =  -6.1924778625188E-01
(PID.TID 0000.0001) %MON dynstat_eta_mean             =  -6.3874697470216E-03
(PID.TID 0000.0001) %MON dynstat_eta_sd               =   5.1325203917807E-02
(PID.TID 0000.0001) %MON dynstat_eta_del2             =   2.1431813670656E-06
(PID.TID 0000.0001) %MON dynstat_uvel_max             =   5.5000945800059E-01
(PID.TID 0000.0001) %MON dynstat_uvel_min             =  -2.6599832721259E-01
(PID.TID 0000.0001) %MON dynstat_uvel_mean            =  -1.3765757124693E-04
(PID.TID 0000.0001) %MON dynstat_uvel_sd              =   1.6942137682403E-02
(PID.TID 0000.0001) %MON dynstat_uvel_del2            =   1.1309704424211E-07
(PID.TID 0000.0001) %MON dynstat_vvel_max             =   6.5392577651774E-01
(PID.TID 0000.0001) %MON dynstat_vvel_min             =  -6.0059748942610E-01
(PID.TID 0000.0001) %MON dynstat_vvel_mean            =  -1.5072490100089E-03
(PID.TID 0000.0001) %MON dynstat_vvel_sd              =   1.5971112723658E-02
(PID.TID 0000.0001) %MON dynstat_vvel_del2            =   1.1380847688649E-07
(PID.TID 0000.0001) %MON dynstat_wvel_max             =   6.0947840452186E-03
(PID.TID 0000.0001) %MON dynstat_wvel_min             =  -6.2597901344663E-03
(PID.TID 0000.0001) %MON dynstat_wvel_mean            =  -9.1718771130338E-06
(PID.TID 0000.0001) %MON dynstat_wvel_sd              =   9.1172314053272E-05
(PID.TID 0000.0001) %MON dynstat_wvel_del2            =   1.1468802301233E-08
(PID.TID 0000.0001) %MON dynstat_theta_max            =   2.5556834309556E+01
(PID.TID 0000.0001) %MON dynstat_theta_min            =   1.4441539126666E+00
(PID.TID 0000.0001) %MON dynstat_theta_mean           =   5.5933730322880E+00
(PID.TID 0000.0001) %MON dynstat_theta_sd             =   4.7973089586214E+00
(PID.TID 0000.0001) %MON dynstat_theta_del2           =   1.4796778992195E-06
(PID.TID 0000.0001) %MON dynstat_salt_max             =   3.8096565679336E+01
(PID.TID 0000.0001) %MON dynstat_salt_min             =   3.0528833614627E+01
(PID.TID 0000.0001) %MON dynstat_salt_mean            =   3.5189814702699E+01
(PID.TID 0000.0001) %MON dynstat_salt_sd              =   4.6940153138367E-01
(PID.TID 0000.0001) %MON dynstat_salt_del2            =   2.7079361020853E-07
(PID.TID 0000.0001) %MON forcing_qnet_max             =   7.4191686885638E+02
(PID.TID 0000.0001) %MON forcing_qnet_min             =  -2.9613735890784E+02
(PID.TID 0000.0001) %MON forcing_qnet_mean            =   2.0647582253050E+02
(PID.TID 0000.0001) %MON forcing_qnet_sd              =   1.2707355019956E+02
(PID.TID 0000.0001) %MON forcing_qnet_del2            =   9.0943499760877E-04
(PID.TID 0000.0001) %MON forcing_qsw_max              =   0.0000000000000E+00
(PID.TID 0000.0001) %MON forcing_qsw_min              =   0.0000000000000E+00
(PID.TID 0000.0001) %MON forcing_qsw_mean             =   0.0000000000000E+00
(PID.TID 0000.0001) %MON forcing_qsw_sd               =   0.0000000000000E+00
(PID.TID 0000.0001) %MON forcing_qsw_del2             =   0.0000000000000E+00
(PID.TID 0000.0001) %MON forcing_empmr_max            =   1.7776391459370E-04
(PID.TID 0000.0001) %MON forcing_empmr_min            =  -8.9240447324666E-04
(PID.TID 0000.0001) %MON forcing_empmr_mean           =   1.9064609905149E-06
(PID.TID 0000.0001) %MON forcing_empmr_sd             =   9.7567459863893E-05
(PID.TID 0000.0001) %MON forcing_empmr_del2           =   2.4676863458915E-09
(PID.TID 0000.0001) %MON forcing_fu_max               =   8.0295824923992E-01
(PID.TID 0000.0001) %MON forcing_fu_min               =  -4.1856041718608E-01
(PID.TID 0000.0001) %MON forcing_fu_mean              =   6.3375268400381E-02
(PID.TID 0000.0001) %MON forcing_fu_sd                =   1.5527685608295E-01
(PID.TID 0000.0001) %MON forcing_fu_del2              =   3.5658878043248E-07
(PID.TID 0000.0001) %MON forcing_fv_max               =   4.4174255939900E-01
(PID.TID 0000.0001) %MON forcing_fv_min               =  -5.7262726912896E-01
(PID.TID 0000.0001) %MON forcing_fv_mean              =   1.0411552575235E-02
(PID.TID 0000.0001) %MON forcing_fv_sd                =   1.0256731393837E-01
(PID.TID 0000.0001) %MON forcing_fv_del2              =   2.9505137461650E-07
(PID.TID 0000.0001) %MON trAdv_CFL_u_max              =   3.6827960055587E-02
(PID.TID 0000.0001) %MON trAdv_CFL_v_max              =   4.6064089432795E-02
(PID.TID 0000.0001) %MON trAdv_CFL_w_max              =   2.2590701205228E-01
(PID.TID 0000.0001) %MON advcfl_uvel_max              =   3.6827959684903E-02
(PID.TID 0000.0001) %MON advcfl_vvel_max              =   4.6065864446706E-02
(PID.TID 0000.0001) %MON advcfl_wvel_max              =   2.2590701205228E-01
(PID.TID 0000.0001) %MON advcfl_W_hf_max              =   2.2590701205228E-01
(PID.TID 0000.0001) %MON pe_b_mean                    =  -1.5403825261516E-04
(PID.TID 0000.0001) %MON ke_max                       =   2.9956081581146E-01
(PID.TID 0000.0001) %MON ke_mean                      =   2.7002590680988E-04
(PID.TID 0000.0001) %MON ke_vol                       =   4.5818599895265E+16
(PID.TID 0000.0001) %MON vort_r_min                   =  -2.4985636819531E-04
(PID.TID 0000.0001) %MON vort_r_max                   =   2.7835617031046E-04
(PID.TID 0000.0001) %MON vort_a_mean                  =   8.2147589996430E-05
(PID.TID 0000.0001) %MON vort_a_sd                    =   9.7033173896058E-06
(PID.TID 0000.0001) %MON vort_p_mean                  =   8.4848810217410E-05
(PID.TID 0000.0001) %MON vort_p_sd                    =   3.5002645105440E-05
(PID.TID 0000.0001) %MON surfExpan_theta_mean         =  -2.9219687363000E-04
(PID.TID 0000.0001) %MON surfExpan_salt_mean          =  -4.8120370600580E-04
(PID.TID 0000.0001) // =======================================================
(PID.TID 0000.0001) // End MONITOR dynamic field statistics
(PID.TID 0000.0001) // =======================================================
(PID.TID 0000.0001) // =======================================================
(PID.TID 0000.0001) // Begin OBCS MONITOR field statistics
(PID.TID 0000.0001) // =======================================================
(PID.TID 0000.0001) %MON obc_E_uVel_max               =   2.7413068863606E-01
(PID.TID 0000.0001) %MON obc_E_uVel_min               =   3.1391155236339E-02
(PID.TID 0000.0001) %MON obc_E_uVel_mean              =   1.3081577792989E-01
(PID.TID 0000.0001) %MON obc_E_uVel_sd                =   5.4622284113001E-02
(PID.TID 0000.0001) %MON obc_E_uVel_Int               =   1.2499342356000E+06
(PID.TID 0000.0001) %MON obc_N_vVel_max               =   7.5017533789168E-02
(PID.TID 0000.0001) %MON obc_N_vVel_min               =  -6.0059748942610E-01
(PID.TID 0000.0001) %MON obc_N_vVel_mean              =  -5.9617752458977E-03
(PID.TID 0000.0001) %MON obc_N_vVel_sd                =   1.6408650826801E-02
(PID.TID 0000.0001) %MON obc_N_vVel_Int               =  -8.5343316192489E+07
(PID.TID 0000.0001) %MON obc_S_vVel_max               =   6.3906313865118E-01
(PID.TID 0000.0001) %MON obc_S_vVel_min               =  -1.0783529642456E-01
(PID.TID 0000.0001) %MON obc_S_vVel_mean              =  -7.5170418613177E-03
(PID.TID 0000.0001) %MON obc_S_vVel_sd                =   2.0136272926634E-02
(PID.TID 0000.0001) %MON obc_S_vVel_Int               =  -2.2884055122125E+08
(PID.TID 0000.0001) %MON obc_E_theta_max              =   1.7031576156616E+01
(PID.TID 0000.0001) %MON obc_E_theta_min              =   1.2988679885864E+01
(PID.TID 0000.0001) %MON obc_E_theta_mean             =   1.5361316191092E+01
(PID.TID 0000.0001) %MON obc_E_theta_sd               =   1.5938527426439E+00
(PID.TID 0000.0001) %MON obc_N_theta_max              =   1.6146022523605E+01
(PID.TID 0000.0001) %MON obc_N_theta_min              =   1.6880380767463E+00
(PID.TID 0000.0001) %MON obc_N_theta_mean             =   5.2226028868106E+00
(PID.TID 0000.0001) %MON obc_N_theta_sd               =   3.6304155216602E+00
(PID.TID 0000.0001) %MON obc_S_theta_max              =   2.5392536835319E+01
(PID.TID 0000.0001) %MON obc_S_theta_min              =   1.5161810184597E+00
(PID.TID 0000.0001) %MON obc_S_theta_mean             =   5.4082510713143E+00
(PID.TID 0000.0001) %MON obc_S_theta_sd               =   5.1183428453241E+00
(PID.TID 0000.0001) %MON obc_E_salt_max               =   3.8136505126953E+01
(PID.TID 0000.0001) %MON obc_E_salt_min               =   3.5754806518555E+01
(PID.TID 0000.0001) %MON obc_E_salt_mean              =   3.6401586390596E+01
(PID.TID 0000.0001) %MON obc_E_salt_sd                =   4.3532669310507E-01
(PID.TID 0000.0001) %MON obc_N_salt_max               =   3.6395879146429E+01
(PID.TID 0000.0001) %MON obc_N_salt_min               =   3.0617503122377E+01
(PID.TID 0000.0001) %MON obc_N_salt_mean              =   3.5063771874952E+01
(PID.TID 0000.0001) %MON obc_N_salt_sd                =   3.9120161184216E-01
(PID.TID 0000.0001) %MON obc_S_salt_max               =   3.7332505167344E+01
(PID.TID 0000.0001) %MON obc_S_salt_min               =   3.4852181425275E+01
(PID.TID 0000.0001) %MON obc_S_salt_mean              =   3.5186250780811E+01
(PID.TID 0000.0001) %MON obc_S_salt_sd                =   5.1365341094845E-01
(PID.TID 0000.0001) // =======================================================
(PID.TID 0000.0001) // End OBCS MONITOR field statistics
(PID.TID 0000.0001) // =======================================================
(PID.TID 0000.0001) // =======================================================
(PID.TID 0000.0001) // Begin MONITOR EXF statistics
(PID.TID 0000.0001) // =======================================================
(PID.TID 0000.0001) %MON exf_tsnumber                 =                     2
(PID.TID 0000.0001) %MON exf_time_sec                 =   4.8000000000000E+02
(PID.TID 0000.0001) %MON exf_ustress_max              =   7.9710153859232E-01
(PID.TID 0000.0001) %MON exf_ustress_min              =  -4.1547894186554E-01
(PID.TID 0000.0001) %MON exf_ustress_mean             =   6.3220103625121E-02
(PID.TID 0000.0001) %MON exf_ustress_sd               =   1.5462868294114E-01
(PID.TID 0000.0001) %MON exf_ustress_del2             =   3.5051255242435E-07
(PID.TID 0000.0001) %MON exf_vstress_max              =   4.3219300799747E-01
(PID.TID 0000.0001) %MON exf_vstress_min              =  -5.6789596621398E-01
(PID.TID 0000.0001) %MON exf_vstress_mean             =   1.0392755670404E-02
(PID.TID 0000.0001) %MON exf_vstress_sd               =   1.0188860361813E-01
(PID.TID 0000.0001) %MON exf_vstress_del2             =   2.9633297486605E-07
(PID.TID 0000.0001) %MON exf_hflux_max                =   7.2326632408810E+02
(PID.TID 0000.0001) %MON exf_hflux_min                =  -2.9142925544008E+02
(PID.TID 0000.0001) %MON exf_hflux_mean               =   2.0490595962704E+02
(PID.TID 0000.0001) %MON exf_hflux_sd                 =   1.2387756746868E+02
(PID.TID 0000.0001) %MON exf_hflux_del2               =   9.4230512540145E-02
(PID.TID 0000.0001) %MON exf_sflux_max                =   1.7634494492807E-07
(PID.TID 0000.0001) %MON exf_sflux_min                =  -1.0175141789367E-06
(PID.TID 0000.0001) %MON exf_sflux_mean               =   2.7808971165187E-09
(PID.TID 0000.0001) %MON exf_sflux_sd                 =   9.9835616858289E-08
(PID.TID 0000.0001) %MON exf_sflux_del2               =   3.9611257672865E-11
(PID.TID 0000.0001) %MON exf_uwind_max                =   1.9144801142756E+01
(PID.TID 0000.0001) %MON exf_uwind_min                =  -1.5074499943363E+01
(PID.TID 0000.0001) %MON exf_uwind_mean               =   2.5026602545114E+00
(PID.TID 0000.0001) %MON exf_uwind_sd                 =   6.6741888581290E+00
(PID.TID 0000.0001) %MON exf_uwind_del2               =   2.8457083476773E-03
(PID.TID 0000.0001) %MON exf_vwind_max                =   1.4621061490564E+01
(PID.TID 0000.0001) %MON exf_vwind_min                =  -1.2800430584768E+01
(PID.TID 0000.0001) %MON exf_vwind_mean               =   8.4090990216196E-01
(PID.TID 0000.0001) %MON exf_vwind_sd                 =   5.2171266410233E+00
(PID.TID 0000.0001) %MON exf_vwind_del2               =   2.0993749663295E-03
(PID.TID 0000.0001) %MON exf_wspeed_max               =   2.0471684124738E+01
(PID.TID 0000.0001) %MON exf_wspeed_min               =   8.9476128019454E-03
(PID.TID 0000.0001) %MON exf_wspeed_mean              =   7.7417840833691E+00
(PID.TID 0000.0001) %MON exf_wspeed_sd                =   4.3357149724129E+00
(PID.TID 0000.0001) %MON exf_wspeed_del2              =   3.5359632469772E-03
(PID.TID 0000.0001) %MON exf_atemp_max                =   2.9817342958842E+02
(PID.TID 0000.0001) %MON exf_atemp_min                =   2.7450055625835E+02
(PID.TID 0000.0001) %MON exf_atemp_mean               =   2.9069606322206E+02
(PID.TID 0000.0001) %MON exf_atemp_sd                 =   3.9441432488625E+00
(PID.TID 0000.0001) %MON exf_atemp_del2               =   6.8473828898972E-03
(PID.TID 0000.0001) %MON exf_aqh_max                  =   1.6808502931582E-02
(PID.TID 0000.0001) %MON exf_aqh_min                  =   2.7354735369524E-03
(PID.TID 0000.0001) %MON exf_aqh_mean                 =   9.4264509100423E-03
(PID.TID 0000.0001) %MON exf_aqh_sd                   =   2.8729981637270E-03
(PID.TID 0000.0001) %MON exf_aqh_del2                 =   3.7525444653730E-06
(PID.TID 0000.0001) %MON exf_lwflux_max               =   1.5890091826453E+02
(PID.TID 0000.0001) %MON exf_lwflux_min               =   1.4313904045905E+01
(PID.TID 0000.0001) %MON exf_lwflux_mean              =   6.5027183896014E+01
(PID.TID 0000.0001) %MON exf_lwflux_sd                =   2.0881431487286E+01
(PID.TID 0000.0001) %MON exf_lwflux_del2              =   2.6296667354809E-02
(PID.TID 0000.0001) %MON exf_evap_max                 =   1.9644468599720E-07
(PID.TID 0000.0001) %MON exf_evap_min                 =  -1.0019221878716E-07
(PID.TID 0000.0001) %MON exf_evap_mean                =   4.9687585437775E-08
(PID.TID 0000.0001) %MON exf_evap_sd                  =   3.9014752582173E-08
(PID.TID 0000.0001) %MON exf_evap_del2                =   2.4961334667612E-11
(PID.TID 0000.0001) %MON exf_precip_max               =   1.1937895275386E-06
(PID.TID 0000.0001) %MON exf_precip_min               =   0.0000000000000E+00
(PID.TID 0000.0001) %MON exf_precip_mean              =   4.5318328109291E-08
(PID.TID 0000.0001) %MON exf_precip_sd                =   9.8967761668200E-08
(PID.TID 0000.0001) %MON exf_precip_del2              =   4.3706777500637E-11
(PID.TID 0000.0001) %MON exf_swflux_max               =   0.0000000000000E+00
(PID.TID 0000.0001) %MON exf_swflux_min               =   0.0000000000000E+00
(PID.TID 0000.0001) %MON exf_swflux_mean              =   0.0000000000000E+00
(PID.TID 0000.0001) %MON exf_swflux_sd                =   0.0000000000000E+00
(PID.TID 0000.0001) %MON exf_swflux_del2              =   0.0000000000000E+00
(PID.TID 0000.0001) %MON exf_swdown_max               =   0.0000000000000E+00
(PID.TID 0000.0001) %MON exf_swdown_min               =   0.0000000000000E+00
(PID.TID 0000.0001) %MON exf_swdown_mean              =   0.0000000000000E+00
(PID.TID 0000.0001) %MON exf_swdown_sd                =   0.0000000000000E+00
(PID.TID 0000.0001) %MON exf_swdown_del2              =   0.0000000000000E+00
(PID.TID 0000.0001) %MON exf_lwdown_max               =   3.9916214768056E+02
(PID.TID 0000.0001) %MON exf_lwdown_min               =   2.2827070729266E+02
(PID.TID 0000.0001) %MON exf_lwdown_mean              =   3.4524834260352E+02
(PID.TID 0000.0001) %MON exf_lwdown_sd                =   2.6076040199170E+01
(PID.TID 0000.0001) %MON exf_lwdown_del2              =   1.3351595018934E-01
(PID.TID 0000.0001) %MON exf_apressure_max            =   1.0278842789597E+05
(PID.TID 0000.0001) %MON exf_apressure_min            =   9.9983892237062E+04
(PID.TID 0000.0001) %MON exf_apressure_mean           =   1.0216062264465E+05
(PID.TID 0000.0001) %MON exf_apressure_sd             =   5.0022381467606E+02
(PID.TID 0000.0001) %MON exf_apressure_del2           =   3.9518615874230E+01
(PID.TID 0000.0001) %MON exf_runoff_max               =   4.4374791284855E-08
(PID.TID 0000.0001) %MON exf_runoff_min               =   0.0000000000000E+00
(PID.TID 0000.0001) %MON exf_runoff_mean              =   1.5883602119650E-09
(PID.TID 0000.0001) %MON exf_runoff_sd                =   5.3902197283252E-09
(PID.TID 0000.0001) %MON exf_runoff_del2              =   2.2191549266395E-12
(PID.TID 0000.0001) // =======================================================
(PID.TID 0000.0001) // End MONITOR EXF statistics
(PID.TID 0000.0001) // =======================================================
 cg2d: Sum(rhs),rhsMax =   2.71059872647654E+02  4.22472048246174E-02
(PID.TID 0000.0001)      cg2d_init_res =   1.17092532990611E+00
(PID.TID 0000.0001)      cg2d_iters(min,last) =      -1     314
(PID.TID 0000.0001)      cg2d_last_res =   6.67676177896666E-12
(PID.TID 0000.0001) // =======================================================
(PID.TID 0000.0001) // Begin MONITOR dynamic field statistics
(PID.TID 0000.0001) // =======================================================
(PID.TID 0000.0001) %MON time_tsnumber                =                     3
(PID.TID 0000.0001) %MON time_secondsf                =   7.2000000000000E+02
(PID.TID 0000.0001) %MON dynstat_eta_max              =   1.5404409365277E+00
(PID.TID 0000.0001) %MON dynstat_eta_min              =  -5.8129755774697E-01
(PID.TID 0000.0001) %MON dynstat_eta_mean             =  -9.2182153755924E-03
(PID.TID 0000.0001) %MON dynstat_eta_sd               =   6.8191532287886E-02
(PID.TID 0000.0001) %MON dynstat_eta_del2             =   1.7885459118845E-06
(PID.TID 0000.0001) %MON dynstat_uvel_max             =   7.8029652306021E-01
(PID.TID 0000.0001) %MON dynstat_uvel_min             =  -2.8300329399194E-01
(PID.TID 0000.0001) %MON dynstat_uvel_mean            =  -2.9723193065274E-04
(PID.TID 0000.0001) %MON dynstat_uvel_sd              =   1.7033753983546E-02
(PID.TID 0000.0001) %MON dynstat_uvel_del2            =   1.2587272430674E-07
(PID.TID 0000.0001) %MON dynstat_vvel_max             =   7.1843589278167E-01
(PID.TID 0000.0001) %MON dynstat_vvel_min             =  -5.9817851694385E-01
(PID.TID 0000.0001) %MON dynstat_vvel_mean            =  -2.1747273855049E-03
(PID.TID 0000.0001) %MON dynstat_vvel_sd              =   1.6015317281656E-02
(PID.TID 0000.0001) %MON dynstat_vvel_del2            =   1.1518456928197E-07
(PID.TID 0000.0001) %MON dynstat_wvel_max             =   6.6807115855026E-03
(PID.TID 0000.0001) %MON dynstat_wvel_min             =  -6.2512906387374E-03
(PID.TID 0000.0001) %MON dynstat_wvel_mean            =  -8.5674949076848E-06
(PID.TID 0000.0001) %MON dynstat_wvel_sd              =   9.4742324542441E-05
(PID.TID 0000.0001) %MON dynstat_wvel_del2            =   1.1742191362016E-08
(PID.TID 0000.0001) %MON dynstat_theta_max            =   2.5556831270834E+01
(PID.TID 0000.0001) %MON dynstat_theta_min            =   1.4441539165426E+00
(PID.TID 0000.0001) %MON dynstat_theta_mean           =   5.5933816458422E+00
(PID.TID 0000.0001) %MON dynstat_theta_sd             =   4.7973177354298E+00
(PID.TID 0000.0001) %MON dynstat_theta_del2           =   1.4880475062716E-06
(PID.TID 0000.0001) %MON dynstat_salt_max             =   3.8096532432320E+01
(PID.TID 0000.0001) %MON dynstat_salt_min             =   3.0529510297771E+01
(PID.TID 0000.0001) %MON dynstat_salt_mean            =   3.5189815926905E+01
(PID.TID 0000.0001) %MON dynstat_salt_sd              =   4.6940475085339E-01
(PID.TID 0000.0001) %MON dynstat_salt_del2            =   2.7196671301584E-07
(PID.TID 0000.0001) %MON forcing_qnet_max             =   7.3326893254049E+02
(PID.TID 0000.0001) %MON forcing_qnet_min             =  -2.9665915517346E+02
(PID.TID 0000.0001) %MON forcing_qnet_mean            =   2.0564949634411E+02
(PID.TID 0000.0001) %MON forcing_qnet_sd              =   1.2606599090439E+02
(PID.TID 0000.0001) %MON forcing_qnet_del2            =   9.0505658792303E-04
(PID.TID 0000.0001) %MON forcing_qsw_max              =   0.0000000000000E+00
(PID.TID 0000.0001) %MON forcing_qsw_min              =   0.0000000000000E+00
(PID.TID 0000.0001) %MON forcing_qsw_mean             =   0.0000000000000E+00
(PID.TID 0000.0001) %MON forcing_qsw_sd               =   0.0000000000000E+00
(PID.TID 0000.0001) %MON forcing_qsw_del2             =   0.0000000000000E+00
(PID.TID 0000.0001) %MON forcing_empmr_max            =   1.7634494492807E-04
(PID.TID 0000.0001) %MON forcing_empmr_min            =  -1.0175141789367E-03
(PID.TID 0000.0001) %MON forcing_empmr_mean           =   2.7808971165187E-06
(PID.TID 0000.0001) %MON forcing_empmr_sd             =   9.9835616858289E-05
(PID.TID 0000.0001) %MON forcing_empmr_del2           =   2.5312493559631E-09
(PID.TID 0000.0001) %MON forcing_fu_max               =   7.9708383313597E-01
(PID.TID 0000.0001) %MON forcing_fu_min               =  -4.1543259823682E-01
(PID.TID 0000.0001) %MON forcing_fu_mean              =   6.3275348625587E-02
(PID.TID 0000.0001) %MON forcing_fu_sd                =   1.5468416727236E-01
(PID.TID 0000.0001) %MON forcing_fu_del2              =   3.3371327272945E-07
(PID.TID 0000.0001) %MON forcing_fv_max               =   4.3190803551891E-01
(PID.TID 0000.0001) %MON forcing_fv_min               =  -5.7026566644578E-01
(PID.TID 0000.0001) %MON forcing_fv_mean              =   1.0373617395915E-02
(PID.TID 0000.0001) %MON forcing_fv_sd                =   1.0201560061992E-01
(PID.TID 0000.0001) %MON forcing_fv_del2              =   2.7203893831920E-07
(PID.TID 0000.0001) %MON trAdv_CFL_u_max              =   5.5639757181651E-02
(PID.TID 0000.0001) %MON trAdv_CFL_v_max              =   4.5878561243417E-02
(PID.TID 0000.0001) %MON trAdv_CFL_w_max              =   2.0457266283016E-01
(PID.TID 0000.0001) %MON advcfl_uvel_max              =   5.5639756621621E-02
(PID.TID 0000.0001) %MON advcfl_vvel_max              =   4.5880329108264E-02
(PID.TID 0000.0001) %MON advcfl_wvel_max              =   2.0615849742574E-01
(PID.TID 0000.0001) %MON advcfl_W_hf_max              =   2.0776911068688E-01
(PID.TID 0000.0001) %MON pe_b_mean                    =  -2.2128834377181E-04
(PID.TID 0000.0001) %MON ke_max                       =   3.0772851964796E-01
(PID.TID 0000.0001) %MON ke_mean                      =   2.7353228230606E-04
(PID.TID 0000.0001) %MON ke_vol                       =   4.5818599895265E+16
(PID.TID 0000.0001) %MON vort_r_min                   =  -2.7002328152995E-04
(PID.TID 0000.0001) %MON vort_r_max                   =   3.6084129436803E-04
(PID.TID 0000.0001) %MON vort_a_mean                  =   8.2147590131042E-05
(PID.TID 0000.0001) %MON vort_a_sd                    =   9.7038456693133E-06
(PID.TID 0000.0001) %MON vort_p_mean                  =   8.4848810356448E-05
(PID.TID 0000.0001) %MON vort_p_sd                    =   3.5001701092903E-05
(PID.TID 0000.0001) %MON surfExpan_theta_mean         =  -2.4944582122178E-04
(PID.TID 0000.0001) %MON surfExpan_salt_mean          =  -4.3839271290911E-04
(PID.TID 0000.0001) // =======================================================
(PID.TID 0000.0001) // End MONITOR dynamic field statistics
(PID.TID 0000.0001) // =======================================================
(PID.TID 0000.0001) // =======================================================
(PID.TID 0000.0001) // Begin OBCS MONITOR field statistics
(PID.TID 0000.0001) // =======================================================
(PID.TID 0000.0001) %MON obc_E_uVel_max               =   2.6455483887911E-01
(PID.TID 0000.0001) %MON obc_E_uVel_min               =   2.7017528380396E-02
(PID.TID 0000.0001) %MON obc_E_uVel_mean              =   1.2650835424608E-01
(PID.TID 0000.0001) %MON obc_E_uVel_sd                =   5.3642410647172E-02
(PID.TID 0000.0001) %MON obc_E_uVel_Int               =   1.2087771487804E+06
(PID.TID 0000.0001) %MON obc_N_vVel_max               =   7.4904121154858E-02
(PID.TID 0000.0001) %MON obc_N_vVel_min               =  -5.9817851694385E-01
(PID.TID 0000.0001) %MON obc_N_vVel_mean              =  -6.1043205345299E-03
(PID.TID 0000.0001) %MON obc_N_vVel_sd                =   1.6492375155166E-02
(PID.TID 0000.0001) %MON obc_N_vVel_Int               =  -8.7383864039015E+07
(PID.TID 0000.0001) %MON obc_S_vVel_max               =   6.3998957064560E-01
(PID.TID 0000.0001) %MON obc_S_vVel_min               =  -1.0770795597149E-01
(PID.TID 0000.0001) %MON obc_S_vVel_mean              =  -7.2092216827642E-03
(PID.TID 0000.0001) %MON obc_S_vVel_sd                =   2.0123228950330E-02
(PID.TID 0000.0001) %MON obc_S_vVel_Int               =  -2.1946961240824E+08
(PID.TID 0000.0001) %MON obc_E_theta_max              =   1.7031576156616E+01
(PID.TID 0000.0001) %MON obc_E_theta_min              =   1.2988679885864E+01
(PID.TID 0000.0001) %MON obc_E_theta_mean             =   1.5361316191092E+01
(PID.TID 0000.0001) %MON obc_E_theta_sd               =   1.5938527426439E+00
(PID.TID 0000.0001) %MON obc_N_theta_max              =   1.6146028115013E+01
(PID.TID 0000.0001) %MON obc_N_theta_min              =   1.6879694025456E+00
(PID.TID 0000.0001) %MON obc_N_theta_mean             =   5.2226009605219E+00
(PID.TID 0000.0001) %MON obc_N_theta_sd               =   3.6304117365336E+00
(PID.TID 0000.0001) %MON obc_S_theta_max              =   2.5392524558138E+01
(PID.TID 0000.0001) %MON obc_S_theta_min              =   1.5161809967447E+00
(PID.TID 0000.0001) %MON obc_S_theta_mean             =   5.4082501501664E+00
(PID.TID 0000.0001) %MON obc_S_theta_sd               =   5.1183396498877E+00
(PID.TID 0000.0001) %MON obc_E_salt_max               =   3.8136505126953E+01
(PID.TID 0000.0001) %MON obc_E_salt_min               =   3.5754806518555E+01
(PID.TID 0000.0001) %MON obc_E_salt_mean              =   3.6401586390596E+01
(PID.TID 0000.0001) %MON obc_E_salt_sd                =   4.3532669310507E-01
(PID.TID 0000.0001) %MON obc_N_salt_max               =   3.6395880489885E+01
(PID.TID 0000.0001) %MON obc_N_salt_min               =   3.0617519685979E+01
(PID.TID 0000.0001) %MON obc_N_salt_mean              =   3.5063771945304E+01
(PID.TID 0000.0001) %MON obc_N_salt_sd                =   3.9120123976821E-01
(PID.TID 0000.0001) %MON obc_S_salt_max               =   3.7332495788219E+01
(PID.TID 0000.0001) %MON obc_S_salt_min               =   3.4852181423535E+01
(PID.TID 0000.0001) %MON obc_S_salt_mean              =   3.5186250821307E+01
(PID.TID 0000.0001) %MON obc_S_salt_sd                =   5.1365349704265E-01
(PID.TID 0000.0001) // =======================================================
(PID.TID 0000.0001) // End OBCS MONITOR field statistics
(PID.TID 0000.0001) // =======================================================
(PID.TID 0000.0001) // =======================================================
(PID.TID 0000.0001) // Begin MONITOR EXF statistics
(PID.TID 0000.0001) // =======================================================
(PID.TID 0000.0001) %MON exf_tsnumber                 =                     3
(PID.TID 0000.0001) %MON exf_time_sec                 =   7.2000000000000E+02
(PID.TID 0000.0001) %MON exf_ustress_max              =   7.9190868998540E-01
(PID.TID 0000.0001) %MON exf_ustress_min              =  -4.1242245527477E-01
(PID.TID 0000.0001) %MON exf_ustress_mean             =   6.3161642510356E-02
(PID.TID 0000.0001) %MON exf_ustress_sd               =   1.5416384370185E-01
(PID.TID 0000.0001) %MON exf_ustress_del2             =   3.3339239158795E-07
(PID.TID 0000.0001) %MON exf_vstress_max              =   4.2471093741144E-01
(PID.TID 0000.0001) %MON exf_vstress_min              =  -5.6552789544070E-01
(PID.TID 0000.0001) %MON exf_vstress_mean             =   1.0373150062654E-02
(PID.TID 0000.0001) %MON exf_vstress_sd               =   1.0145993563805E-01
(PID.TID 0000.0001) %MON exf_vstress_del2             =   2.7876862831817E-07
(PID.TID 0000.0001) %MON exf_hflux_max                =   7.1604844106382E+02
(PID.TID 0000.0001) %MON exf_hflux_min                =  -2.9281450355405E+02
(PID.TID 0000.0001) %MON exf_hflux_mean               =   2.0404134182884E+02
(PID.TID 0000.0001) %MON exf_hflux_sd                 =   1.2318850778409E+02
(PID.TID 0000.0001) %MON exf_hflux_del2               =   9.3792819701579E-02
(PID.TID 0000.0001) %MON exf_sflux_max                =   1.7498209204042E-07
(PID.TID 0000.0001) %MON exf_sflux_min                =  -1.1425853674605E-06
(PID.TID 0000.0001) %MON exf_sflux_mean               =   3.6678479139520E-09
(PID.TID 0000.0001) %MON exf_sflux_sd                 =   1.0360234075893E-07
(PID.TID 0000.0001) %MON exf_sflux_del2               =   4.1255206272384E-11
(PID.TID 0000.0001) %MON exf_uwind_max                =   1.9100254501147E+01
(PID.TID 0000.0001) %MON exf_uwind_min                =  -1.5037261511176E+01
(PID.TID 0000.0001) %MON exf_uwind_mean               =   2.5032161439841E+00
(PID.TID 0000.0001) %MON exf_uwind_sd                 =   6.6688458955138E+00
(PID.TID 0000.0001) %MON exf_uwind_del2               =   2.8437204778696E-03
(PID.TID 0000.0001) %MON exf_vwind_max                =   1.4529576297704E+01
(PID.TID 0000.0001) %MON exf_vwind_min                =  -1.2785986463811E+01
(PID.TID 0000.0001) %MON exf_vwind_mean               =   8.4251284185471E-01
(PID.TID 0000.0001) %MON exf_vwind_sd                 =   5.2065783562013E+00
(PID.TID 0000.0001) %MON exf_vwind_del2               =   2.0955868999848E-03
(PID.TID 0000.0001) %MON exf_wspeed_max               =   2.0419725803004E+01
(PID.TID 0000.0001) %MON exf_wspeed_min               =   2.6296116913743E-03
(PID.TID 0000.0001) %MON exf_wspeed_mean              =   7.7331188100030E+00
(PID.TID 0000.0001) %MON exf_wspeed_sd                =   4.3309070851204E+00
(PID.TID 0000.0001) %MON exf_wspeed_del2              =   3.5321332332127E-03
(PID.TID 0000.0001) %MON exf_atemp_max                =   2.9817123230001E+02
(PID.TID 0000.0001) %MON exf_atemp_min                =   2.7447495504971E+02
(PID.TID 0000.0001) %MON exf_atemp_mean               =   2.9069294233455E+02
(PID.TID 0000.0001) %MON exf_atemp_sd                 =   3.9437492987714E+00
(PID.TID 0000.0001) %MON exf_atemp_del2               =   6.8461171402841E-03
(PID.TID 0000.0001) %MON exf_aqh_max                  =   1.6801516630708E-02
(PID.TID 0000.0001) %MON exf_aqh_min                  =   2.7331788391884E-03
(PID.TID 0000.0001) %MON exf_aqh_mean                 =   9.4252625590886E-03
(PID.TID 0000.0001) %MON exf_aqh_sd                   =   2.8726645621014E-03
(PID.TID 0000.0001) %MON exf_aqh_del2                 =   3.7519673532010E-06
(PID.TID 0000.0001) %MON exf_lwflux_max               =   1.5880364293393E+02
(PID.TID 0000.0001) %MON exf_lwflux_min               =   1.4296514069503E+01
(PID.TID 0000.0001) %MON exf_lwflux_mean              =   6.4250928109148E+01
(PID.TID 0000.0001) %MON exf_lwflux_sd                =   2.1472053050673E+01
(PID.TID 0000.0001) %MON exf_lwflux_del2              =   2.6078048103168E-02
(PID.TID 0000.0001) %MON exf_evap_max                 =   1.9544492294841E-07
(PID.TID 0000.0001) %MON exf_evap_min                 =  -9.9693805469766E-08
(PID.TID 0000.0001) %MON exf_evap_mean                =   4.9650638298287E-08
(PID.TID 0000.0001) %MON exf_evap_sd                  =   3.8917701670296E-08
(PID.TID 0000.0001) %MON exf_evap_del2                =   2.4927356940747E-11
(PID.TID 0000.0001) %MON exf_precip_max               =   1.3194515830690E-06
(PID.TID 0000.0001) %MON exf_precip_min               =   0.0000000000000E+00
(PID.TID 0000.0001) %MON exf_precip_mean              =   4.4394430172370E-08
(PID.TID 0000.0001) %MON exf_precip_sd                =   1.0414849537351E-07
(PID.TID 0000.0001) %MON exf_precip_del2              =   4.5593375244555E-11
(PID.TID 0000.0001) %MON exf_swflux_max               =   0.0000000000000E+00
(PID.TID 0000.0001) %MON exf_swflux_min               =   0.0000000000000E+00
(PID.TID 0000.0001) %MON exf_swflux_mean              =   0.0000000000000E+00
(PID.TID 0000.0001) %MON exf_swflux_sd                =   0.0000000000000E+00
(PID.TID 0000.0001) %MON exf_swflux_del2              =   0.0000000000000E+00
(PID.TID 0000.0001) %MON exf_swdown_max               =   0.0000000000000E+00
(PID.TID 0000.0001) %MON exf_swdown_min               =   0.0000000000000E+00
(PID.TID 0000.0001) %MON exf_swdown_mean              =   0.0000000000000E+00
(PID.TID 0000.0001) %MON exf_swdown_sd                =   0.0000000000000E+00
(PID.TID 0000.0001) %MON exf_swdown_del2              =   0.0000000000000E+00
(PID.TID 0000.0001) %MON exf_lwdown_max               =   3.9966788667862E+02
(PID.TID 0000.0001) %MON exf_lwdown_min               =   2.2872729573522E+02
(PID.TID 0000.0001) %MON exf_lwdown_mean              =   3.4604239596959E+02
(PID.TID 0000.0001) %MON exf_lwdown_sd                =   2.6718213711842E+01
(PID.TID 0000.0001) %MON exf_lwdown_del2              =   1.3384575989247E-01
(PID.TID 0000.0001) %MON exf_apressure_max            =   1.0278993892836E+05
(PID.TID 0000.0001) %MON exf_apressure_min            =   9.9988779524667E+04
(PID.TID 0000.0001) %MON exf_apressure_mean           =   1.0216140001560E+05
(PID.TID 0000.0001) %MON exf_apressure_sd             =   4.9990233060689E+02
(PID.TID 0000.0001) %MON exf_apressure_del2           =   3.9518922899730E+01
(PID.TID 0000.0001) %MON exf_runoff_max               =   4.4374791284855E-08
(PID.TID 0000.0001) %MON exf_runoff_min               =   0.0000000000000E+00
(PID.TID 0000.0001) %MON exf_runoff_mean              =   1.5883602119650E-09
(PID.TID 0000.0001) %MON exf_runoff_sd                =   5.3902197283252E-09
(PID.TID 0000.0001) %MON exf_runoff_del2              =   2.2191549266395E-12
(PID.TID 0000.0001) // =======================================================
(PID.TID 0000.0001) // End MONITOR EXF statistics
(PID.TID 0000.0001) // =======================================================
 cg2d: Sum(rhs),rhsMax =   3.47045945736950E+02  4.03651827867597E-02
(PID.TID 0000.0001)      cg2d_init_res =   8.64855519261724E-01
(PID.TID 0000.0001)      cg2d_iters(min,last) =      -1     312
(PID.TID 0000.0001)      cg2d_last_res =   6.97754145267412E-12
(PID.TID 0000.0001) // =======================================================
(PID.TID 0000.0001) // Begin MONITOR dynamic field statistics
(PID.TID 0000.0001) // =======================================================
(PID.TID 0000.0001) %MON time_tsnumber                =                     4
(PID.TID 0000.0001) %MON time_secondsf                =   9.6000000000000E+02
(PID.TID 0000.0001) %MON dynstat_eta_max              =   1.4874778169771E+00
(PID.TID 0000.0001) %MON dynstat_eta_min              =  -5.4267211792997E-01
(PID.TID 0000.0001) %MON dynstat_eta_mean             =  -1.1802352896358E-02
(PID.TID 0000.0001) %MON dynstat_eta_sd               =   8.3027347283478E-02
(PID.TID 0000.0001) %MON dynstat_eta_del2             =   1.5660218199976E-06
(PID.TID 0000.0001) %MON dynstat_uvel_max             =   9.1319398141961E-01
(PID.TID 0000.0001) %MON dynstat_uvel_min             =  -3.1418074506071E-01
(PID.TID 0000.0001) %MON dynstat_uvel_mean            =  -4.7424067507444E-04
(PID.TID 0000.0001) %MON dynstat_uvel_sd              =   1.7102127912889E-02
(PID.TID 0000.0001) %MON dynstat_uvel_del2            =   1.3650452834883E-07
(PID.TID 0000.0001) %MON dynstat_vvel_max             =   7.9080258215459E-01
(PID.TID 0000.0001) %MON dynstat_vvel_min             =  -6.1441698098744E-01
(PID.TID 0000.0001) %MON dynstat_vvel_mean            =  -2.8000226954836E-03
(PID.TID 0000.0001) %MON dynstat_vvel_sd              =   1.6070717316778E-02
(PID.TID 0000.0001) %MON dynstat_vvel_del2            =   1.1808732223160E-07
(PID.TID 0000.0001) %MON dynstat_wvel_max             =   6.9662482887518E-03
(PID.TID 0000.0001) %MON dynstat_wvel_min             =  -6.1265846794028E-03
(PID.TID 0000.0001) %MON dynstat_wvel_mean            =  -7.9531756166990E-06
(PID.TID 0000.0001) %MON dynstat_wvel_sd              =   9.8876707663614E-05
(PID.TID 0000.0001) %MON dynstat_wvel_del2            =   1.1820839934239E-08
(PID.TID 0000.0001) %MON dynstat_theta_max            =   2.5556827925958E+01
(PID.TID 0000.0001) %MON dynstat_theta_min            =   1.4441539204185E+00
(PID.TID 0000.0001) %MON dynstat_theta_mean           =   5.5933882784200E+00
(PID.TID 0000.0001) %MON dynstat_theta_sd             =   4.7973229905195E+00
(PID.TID 0000.0001) %MON dynstat_theta_del2           =   1.4941519288125E-06
(PID.TID 0000.0001) %MON dynstat_salt_max             =   3.8096412422053E+01
(PID.TID 0000.0001) %MON dynstat_salt_min             =   3.0530166021813E+01
(PID.TID 0000.0001) %MON dynstat_salt_mean            =   3.5189816756133E+01
(PID.TID 0000.0001) %MON dynstat_salt_sd              =   4.6940775741968E-01
(PID.TID 0000.0001) %MON dynstat_salt_del2            =   2.7351742075530E-07
(PID.TID 0000.0001) %MON forcing_qnet_max             =   7.2525329337110E+02
(PID.TID 0000.0001) %MON forcing_qnet_min             =  -2.9791604021818E+02
(PID.TID 0000.0001) %MON forcing_qnet_mean            =   2.0486471045735E+02
(PID.TID 0000.0001) %MON forcing_qnet_sd              =   1.2517245782329E+02
(PID.TID 0000.0001) %MON forcing_qnet_del2            =   9.0947386356507E-04
(PID.TID 0000.0001) %MON forcing_qsw_max              =   0.0000000000000E+00
(PID.TID 0000.0001) %MON forcing_qsw_min              =   0.0000000000000E+00
(PID.TID 0000.0001) %MON forcing_qsw_mean             =   0.0000000000000E+00
(PID.TID 0000.0001) %MON forcing_qsw_sd               =   0.0000000000000E+00
(PID.TID 0000.0001) %MON forcing_qsw_del2             =   0.0000000000000E+00
(PID.TID 0000.0001) %MON forcing_empmr_max            =   1.7498209204042E-04
(PID.TID 0000.0001) %MON forcing_empmr_min            =  -1.1425853674605E-03
(PID.TID 0000.0001) %MON forcing_empmr_mean           =   3.6678479139521E-06
(PID.TID 0000.0001) %MON forcing_empmr_sd             =   1.0360234075893E-04
(PID.TID 0000.0001) %MON forcing_empmr_del2           =   2.6336533100107E-09
(PID.TID 0000.0001) %MON forcing_fu_max               =   7.9175137868455E-01
(PID.TID 0000.0001) %MON forcing_fu_min               =  -4.1241626232292E-01
(PID.TID 0000.0001) %MON forcing_fu_mean              =   6.3217215594181E-02
(PID.TID 0000.0001) %MON forcing_fu_sd                =   1.5421960562639E-01
(PID.TID 0000.0001) %MON forcing_fu_del2              =   3.1572785058738E-07
(PID.TID 0000.0001) %MON forcing_fv_max               =   4.2432941929684E-01
(PID.TID 0000.0001) %MON forcing_fv_min               =  -5.6823587016241E-01
(PID.TID 0000.0001) %MON forcing_fv_mean              =   1.0354230049866E-02
(PID.TID 0000.0001) %MON forcing_fv_sd                =   1.0158762157474E-01
(PID.TID 0000.0001) %MON forcing_fv_del2              =   2.5435973681882E-07
(PID.TID 0000.0001) %MON trAdv_CFL_u_max              =   6.5116131988725E-02
(PID.TID 0000.0001) %MON trAdv_CFL_v_max              =   5.0116619747623E-02
(PID.TID 0000.0001) %MON trAdv_CFL_w_max              =   2.0657395989521E-01
(PID.TID 0000.0001) %MON advcfl_uvel_max              =   6.5116131333313E-02
(PID.TID 0000.0001) %MON advcfl_vvel_max              =   5.0129908011202E-02
(PID.TID 0000.0001) %MON advcfl_wvel_max              =   2.1048760005424E-01
(PID.TID 0000.0001) %MON advcfl_W_hf_max              =   2.1489672100255E-01
(PID.TID 0000.0001) %MON pe_b_mean                    =  -2.8219588677891E-04
(PID.TID 0000.0001) %MON ke_max                       =   3.7256584720204E-01
(PID.TID 0000.0001) %MON ke_mean                      =   2.7719119155017E-04
(PID.TID 0000.0001) %MON ke_vol                       =   4.5818599895265E+16
(PID.TID 0000.0001) %MON vort_r_min                   =  -2.8260668273985E-04
(PID.TID 0000.0001) %MON vort_r_max                   =   4.0304337902960E-04
(PID.TID 0000.0001) %MON vort_a_mean                  =   8.2147590281420E-05
(PID.TID 0000.0001) %MON vort_a_sd                    =   9.7044253742031E-06
(PID.TID 0000.0001) %MON vort_p_mean                  =   8.4848810511772E-05
(PID.TID 0000.0001) %MON vort_p_sd                    =   3.5001029096042E-05
(PID.TID 0000.0001) %MON surfExpan_theta_mean         =  -2.1010556323418E-04
(PID.TID 0000.0001) %MON surfExpan_salt_mean          =  -3.9550946025074E-04
(PID.TID 0000.0001) // =======================================================
(PID.TID 0000.0001) // End MONITOR dynamic field statistics
(PID.TID 0000.0001) // =======================================================
(PID.TID 0000.0001) // =======================================================
(PID.TID 0000.0001) // Begin OBCS MONITOR field statistics
(PID.TID 0000.0001) // =======================================================
(PID.TID 0000.0001) %MON obc_E_uVel_max               =   2.5468763587156E-01
(PID.TID 0000.0001) %MON obc_E_uVel_min               =   2.2511627568817E-02
(PID.TID 0000.0001) %MON obc_E_uVel_mean              =   1.2206885857800E-01
(PID.TID 0000.0001) %MON obc_E_uVel_sd                =   5.2642727770313E-02
(PID.TID 0000.0001) %MON obc_E_uVel_Int               =   1.1663581247748E+06
(PID.TID 0000.0001) %MON obc_N_vVel_max               =   7.4795482653396E-02
(PID.TID 0000.0001) %MON obc_N_vVel_min               =  -6.0074422521223E-01
(PID.TID 0000.0001) %MON obc_N_vVel_mean              =  -6.2392808304396E-03
(PID.TID 0000.0001) %MON obc_N_vVel_sd                =   1.6567617016801E-02
(PID.TID 0000.0001) %MON obc_N_vVel_Int               =  -8.9315832074069E+07
(PID.TID 0000.0001) %MON obc_S_vVel_max               =   6.4090137732273E-01
(PID.TID 0000.0001) %MON obc_S_vVel_min               =  -1.0758236534381E-01
(PID.TID 0000.0001) %MON obc_S_vVel_mean              =  -6.8926313341004E-03
(PID.TID 0000.0001) %MON obc_S_vVel_sd                =   2.0108899348170E-02
(PID.TID 0000.0001) %MON obc_S_vVel_Int               =  -2.0983168418646E+08
(PID.TID 0000.0001) %MON obc_E_theta_max              =   1.7031576156616E+01
(PID.TID 0000.0001) %MON obc_E_theta_min              =   1.2988679885864E+01
(PID.TID 0000.0001) %MON obc_E_theta_mean             =   1.5361316191092E+01
(PID.TID 0000.0001) %MON obc_E_theta_sd               =   1.5938527426439E+00
(PID.TID 0000.0001) %MON obc_N_theta_max              =   1.6146033706421E+01
(PID.TID 0000.0001) %MON obc_N_theta_min              =   1.6879007283449E+00
(PID.TID 0000.0001) %MON obc_N_theta_mean             =   5.2225990342332E+00
(PID.TID 0000.0001) %MON obc_N_theta_sd               =   3.6304079514652E+00
(PID.TID 0000.0001) %MON obc_S_theta_max              =   2.5392512280958E+01
(PID.TID 0000.0001) %MON obc_S_theta_min              =   1.5161809750297E+00
(PID.TID 0000.0001) %MON obc_S_theta_mean             =   5.4082492290185E+00
(PID.TID 0000.0001) %MON obc_S_theta_sd               =   5.1183364544643E+00
(PID.TID 0000.0001) %MON obc_E_salt_max               =   3.8136505126953E+01
(PID.TID 0000.0001) %MON obc_E_salt_min               =   3.5754806518555E+01
(PID.TID 0000.0001) %MON obc_E_salt_mean              =   3.6401586390596E+01
(PID.TID 0000.0001) %MON obc_E_salt_sd                =   4.3532669310507E-01
(PID.TID 0000.0001) %MON obc_N_salt_max               =   3.6395881833340E+01
(PID.TID 0000.0001) %MON obc_N_salt_min               =   3.0617536249581E+01
(PID.TID 0000.0001) %MON obc_N_salt_mean              =   3.5063772015656E+01
(PID.TID 0000.0001) %MON obc_N_salt_sd                =   3.9120086771836E-01
(PID.TID 0000.0001) %MON obc_S_salt_max               =   3.7332486409094E+01
(PID.TID 0000.0001) %MON obc_S_salt_min               =   3.4852181421794E+01
(PID.TID 0000.0001) %MON obc_S_salt_mean              =   3.5186250861803E+01
(PID.TID 0000.0001) %MON obc_S_salt_sd                =   5.1365358313679E-01
(PID.TID 0000.0001) // =======================================================
(PID.TID 0000.0001) // End OBCS MONITOR field statistics
(PID.TID 0000.0001) // =======================================================
(PID.TID 0000.0001) // =======================================================
(PID.TID 0000.0001) // Begin MONITOR EXF statistics
(PID.TID 0000.0001) // =======================================================
(PID.TID 0000.0001) %MON exf_tsnumber                 =                     4
(PID.TID 0000.0001) %MON exf_time_sec                 =   9.6000000000000E+02
(PID.TID 0000.0001) %MON exf_ustress_max              =   7.8711007108340E-01
(PID.TID 0000.0001) %MON exf_ustress_min              =  -4.0954084691915E-01
(PID.TID 0000.0001) %MON exf_ustress_mean             =   6.3138420110020E-02
(PID.TID 0000.0001) %MON exf_ustress_sd               =   1.5380609530667E-01
(PID.TID 0000.0001) %MON exf_ustress_del2             =   3.2062670087326E-07
(PID.TID 0000.0001) %MON exf_vstress_max              =   4.1927059213486E-01
(PID.TID 0000.0001) %MON exf_vstress_min              =  -5.6366641188792E-01
(PID.TID 0000.0001) %MON exf_vstress_mean             =   1.0370300972834E-02
(PID.TID 0000.0001) %MON exf_vstress_sd               =   1.0113722338626E-01
(PID.TID 0000.0001) %MON exf_vstress_del2             =   2.6607805257251E-07
(PID.TID 0000.0001) %MON exf_hflux_max                =   7.0896729504481E+02
(PID.TID 0000.0001) %MON exf_hflux_min                =  -2.9449040509700E+02
(PID.TID 0000.0001) %MON exf_hflux_mean               =   2.0320831854036E+02
(PID.TID 0000.0001) %MON exf_hflux_sd                 =   1.2258861579715E+02
(PID.TID 0000.0001) %MON exf_hflux_del2               =   9.3384672889251E-02
(PID.TID 0000.0001) %MON exf_sflux_max                =   1.7365158931808E-07
(PID.TID 0000.0001) %MON exf_sflux_min                =  -1.2676345867946E-06
(PID.TID 0000.0001) %MON exf_sflux_mean               =   4.5648173889166E-09
(PID.TID 0000.0001) %MON exf_sflux_sd                 =   1.0871083441492E-07
(PID.TID 0000.0001) %MON exf_sflux_del2               =   4.3428614517926E-11
(PID.TID 0000.0001) %MON exf_uwind_max                =   1.9063637523966E+01
(PID.TID 0000.0001) %MON exf_uwind_min                =  -1.5002866143086E+01
(PID.TID 0000.0001) %MON exf_uwind_mean               =   2.5039802408774E+00
(PID.TID 0000.0001) %MON exf_uwind_sd                 =   6.6645900224550E+00
(PID.TID 0000.0001) %MON exf_uwind_del2               =   2.8421757762805E-03
(PID.TID 0000.0001) %MON exf_vwind_max                =   1.4459666219824E+01
(PID.TID 0000.0001) %MON exf_vwind_min                =  -1.2775369953741E+01
(PID.TID 0000.0001) %MON exf_vwind_mean               =   8.4414862634973E-01
(PID.TID 0000.0001) %MON exf_vwind_sd                 =   5.1977832958143E+00
(PID.TID 0000.0001) %MON exf_vwind_del2               =   2.0925027949160E-03
(PID.TID 0000.0001) %MON exf_wspeed_max               =   2.0371881053602E+01
(PID.TID 0000.0001) %MON exf_wspeed_min               =   6.1928260216693E-03
(PID.TID 0000.0001) %MON exf_wspeed_mean              =   7.7258812139078E+00
(PID.TID 0000.0001) %MON exf_wspeed_sd                =   4.3274674783656E+00
(PID.TID 0000.0001) %MON exf_wspeed_del2              =   3.5290754738761E-03
(PID.TID 0000.0001) %MON exf_atemp_max                =   2.9816903501159E+02
(PID.TID 0000.0001) %MON exf_atemp_min                =   2.7444935384107E+02
(PID.TID 0000.0001) %MON exf_atemp_mean               =   2.9068982144703E+02
(PID.TID 0000.0001) %MON exf_atemp_sd                 =   3.9434978081768E+00
(PID.TID 0000.0001) %MON exf_atemp_del2               =   6.8448650976156E-03
(PID.TID 0000.0001) %MON exf_aqh_max                  =   1.6794530329835E-02
(PID.TID 0000.0001) %MON exf_aqh_min                  =   2.7308841414245E-03
(PID.TID 0000.0001) %MON exf_aqh_mean                 =   9.4240742081350E-03
(PID.TID 0000.0001) %MON exf_aqh_sd                   =   2.8725037411633E-03
(PID.TID 0000.0001) %MON exf_aqh_del2                 =   3.7514119980926E-06
(PID.TID 0000.0001) %MON exf_lwflux_max               =   1.5988494468989E+02
(PID.TID 0000.0001) %MON exf_lwflux_min               =   1.2621548253307E+01
(PID.TID 0000.0001) %MON exf_lwflux_mean              =   6.3475689017345E+01
(PID.TID 0000.0001) %MON exf_lwflux_sd                =   2.2323242334781E+01
(PID.TID 0000.0001) %MON exf_lwflux_del2              =   2.5897945117480E-02
(PID.TID 0000.0001) %MON exf_evap_max                 =   1.9449767064417E-07
(PID.TID 0000.0001) %MON exf_evap_min                 =  -9.9280465710902E-08
(PID.TID 0000.0001) %MON exf_evap_mean                =   4.9623709836331E-08
(PID.TID 0000.0001) %MON exf_evap_sd                  =   3.8836652490127E-08
(PID.TID 0000.0001) %MON exf_evap_del2                =   2.4900642733147E-11
(PID.TID 0000.0001) %MON exf_precip_max               =   1.4451136385994E-06
(PID.TID 0000.0001) %MON exf_precip_min               =   0.0000000000000E+00
(PID.TID 0000.0001) %MON exf_precip_mean              =   4.3470532235450E-08
(PID.TID 0000.0001) %MON exf_precip_sd                =   1.1052756794663E-07
(PID.TID 0000.0001) %MON exf_precip_del2              =   4.7938939892168E-11
(PID.TID 0000.0001) %MON exf_swflux_max               =   0.0000000000000E+00
(PID.TID 0000.0001) %MON exf_swflux_min               =   0.0000000000000E+00
(PID.TID 0000.0001) %MON exf_swflux_mean              =   0.0000000000000E+00
(PID.TID 0000.0001) %MON exf_swflux_sd                =   0.0000000000000E+00
(PID.TID 0000.0001) %MON exf_swflux_del2              =   0.0000000000000E+00
(PID.TID 0000.0001) %MON exf_swdown_max               =   0.0000000000000E+00
(PID.TID 0000.0001) %MON exf_swdown_min               =   0.0000000000000E+00
(PID.TID 0000.0001) %MON exf_swdown_mean              =   0.0000000000000E+00
(PID.TID 0000.0001) %MON exf_swdown_sd                =   0.0000000000000E+00
(PID.TID 0000.0001) %MON exf_swdown_del2              =   0.0000000000000E+00
(PID.TID 0000.0001) %MON exf_lwdown_max               =   4.0121792842509E+02
(PID.TID 0000.0001) %MON exf_lwdown_min               =   2.2846849151524E+02
(PID.TID 0000.0001) %MON exf_lwdown_mean              =   3.4683644933566E+02
(PID.TID 0000.0001) %MON exf_lwdown_sd                =   2.7582727868337E+01
(PID.TID 0000.0001) %MON exf_lwdown_del2              =   1.3418294622695E-01
(PID.TID 0000.0001) %MON exf_apressure_max            =   1.0279144996075E+05
(PID.TID 0000.0001) %MON exf_apressure_min            =   9.9993666812272E+04
(PID.TID 0000.0001) %MON exf_apressure_mean           =   1.0216217738655E+05
(PID.TID 0000.0001) %MON exf_apressure_sd             =   4.9962039838034E+02
(PID.TID 0000.0001) %MON exf_apressure_del2           =   3.9519230006653E+01
(PID.TID 0000.0001) %MON exf_runoff_max               =   4.4374791284855E-08
(PID.TID 0000.0001) %MON exf_runoff_min               =   0.0000000000000E+00
(PID.TID 0000.0001) %MON exf_runoff_mean              =   1.5883602119650E-09
(PID.TID 0000.0001) %MON exf_runoff_sd                =   5.3902197283252E-09
(PID.TID 0000.0001) %MON exf_runoff_del2              =   2.2191549266395E-12
(PID.TID 0000.0001) // =======================================================
(PID.TID 0000.0001) // End MONITOR EXF statistics
(PID.TID 0000.0001) // =======================================================
 cg2d: Sum(rhs),rhsMax =   4.15689215627016E+02  4.04399412374680E-02
(PID.TID 0000.0001)      cg2d_init_res =   7.68759745664143E-01
(PID.TID 0000.0001)      cg2d_iters(min,last) =      -1     311
(PID.TID 0000.0001)      cg2d_last_res =   6.98011590533890E-12
(PID.TID 0000.0001) // =======================================================
(PID.TID 0000.0001) // Begin MONITOR dynamic field statistics
(PID.TID 0000.0001) // =======================================================
(PID.TID 0000.0001) %MON time_tsnumber                =                     5
(PID.TID 0000.0001) %MON time_secondsf                =   1.2000000000000E+03
(PID.TID 0000.0001) %MON dynstat_eta_max              =   1.4160235267527E+00
(PID.TID 0000.0001) %MON dynstat_eta_min              =  -5.0582003078411E-01
(PID.TID 0000.0001) %MON dynstat_eta_mean             =  -1.4136776061804E-02
(PID.TID 0000.0001) %MON dynstat_eta_sd               =   9.6333579748069E-02
(PID.TID 0000.0001) %MON dynstat_eta_del2             =   1.4009629149487E-06
(PID.TID 0000.0001) %MON dynstat_uvel_max             =   9.3100621100082E-01
(PID.TID 0000.0001) %MON dynstat_uvel_min             =  -4.1186698886600E-01
(PID.TID 0000.0001) %MON dynstat_uvel_mean            =  -6.6774006987838E-04
(PID.TID 0000.0001) %MON dynstat_uvel_sd              =   1.7152794214583E-02
(PID.TID 0000.0001) %MON dynstat_uvel_del2            =   1.4638645558961E-07
(PID.TID 0000.0001) %MON dynstat_vvel_max             =   8.3562820508320E-01
(PID.TID 0000.0001) %MON dynstat_vvel_min             =  -6.2550625061672E-01
(PID.TID 0000.0001) %MON dynstat_vvel_mean            =  -3.3824148107346E-03
(PID.TID 0000.0001) %MON dynstat_vvel_sd              =   1.6127900885173E-02
(PID.TID 0000.0001) %MON dynstat_vvel_del2            =   1.2305601428543E-07
(PID.TID 0000.0001) %MON dynstat_wvel_max             =   7.0212586782900E-03
(PID.TID 0000.0001) %MON dynstat_wvel_min             =  -5.8490623902228E-03
(PID.TID 0000.0001) %MON dynstat_wvel_mean            =  -7.3296219459673E-06
(PID.TID 0000.0001) %MON dynstat_wvel_sd              =   1.0304849267815E-04
(PID.TID 0000.0001) %MON dynstat_wvel_del2            =   1.1852560228116E-08
(PID.TID 0000.0001) %MON dynstat_theta_max            =   2.5557087701282E+01
(PID.TID 0000.0001) %MON dynstat_theta_min            =   1.4441539242945E+00
(PID.TID 0000.0001) %MON dynstat_theta_mean           =   5.5933930962425E+00
(PID.TID 0000.0001) %MON dynstat_theta_sd             =   4.7973251251777E+00
(PID.TID 0000.0001) %MON dynstat_theta_del2           =   1.4991502242664E-06
(PID.TID 0000.0001) %MON dynstat_salt_max             =   3.8096173533193E+01
(PID.TID 0000.0001) %MON dynstat_salt_min             =   3.0530805631195E+01
(PID.TID 0000.0001) %MON dynstat_salt_mean            =   3.5189817227341E+01
(PID.TID 0000.0001) %MON dynstat_salt_sd              =   4.6941061126965E-01
(PID.TID 0000.0001) %MON dynstat_salt_del2            =   2.7548223350705E-07
(PID.TID 0000.0001) %MON forcing_qnet_max             =   7.1750005127881E+02
(PID.TID 0000.0001) %MON forcing_qnet_min             =  -2.9948498677232E+02
(PID.TID 0000.0001) %MON forcing_qnet_mean            =   2.0411260748951E+02
(PID.TID 0000.0001) %MON forcing_qnet_sd              =   1.2438457797782E+02
(PID.TID 0000.0001) %MON forcing_qnet_del2            =   9.1879949991105E-04
(PID.TID 0000.0001) %MON forcing_qsw_max              =   0.0000000000000E+00
(PID.TID 0000.0001) %MON forcing_qsw_min              =   0.0000000000000E+00
(PID.TID 0000.0001) %MON forcing_qsw_mean             =   0.0000000000000E+00
(PID.TID 0000.0001) %MON forcing_qsw_sd               =   0.0000000000000E+00
(PID.TID 0000.0001) %MON forcing_qsw_del2             =   0.0000000000000E+00
(PID.TID 0000.0001) %MON forcing_empmr_max            =   1.7365158931808E-04
(PID.TID 0000.0001) %MON forcing_empmr_min            =  -1.2676345867946E-03
(PID.TID 0000.0001) %MON forcing_empmr_mean           =   4.5648173889166E-06
(PID.TID 0000.0001) %MON forcing_empmr_sd             =   1.0871083441492E-04
(PID.TID 0000.0001) %MON forcing_empmr_del2           =   2.7703953603192E-09
(PID.TID 0000.0001) %MON forcing_fu_max               =   7.8677935438083E-01
(PID.TID 0000.0001) %MON forcing_fu_min               =  -4.0948289126760E-01
(PID.TID 0000.0001) %MON forcing_fu_mean              =   6.3194344961456E-02
(PID.TID 0000.0001) %MON forcing_fu_sd                =   1.5386211385798E-01
(PID.TID 0000.0001) %MON forcing_fu_del2              =   3.0219856124666E-07
(PID.TID 0000.0001) %MON forcing_fv_max               =   4.1895485860822E-01
(PID.TID 0000.0001) %MON forcing_fv_min               =  -5.6664399639845E-01
(PID.TID 0000.0001) %MON forcing_fv_mean              =   1.0351611812610E-02
(PID.TID 0000.0001) %MON forcing_fv_sd                =   1.0126546599722E-01
(PID.TID 0000.0001) %MON forcing_fv_del2              =   2.4130621622957E-07
(PID.TID 0000.0001) %MON trAdv_CFL_u_max              =   6.6386249308838E-02
(PID.TID 0000.0001) %MON trAdv_CFL_v_max              =   5.2957415604843E-02
(PID.TID 0000.0001) %MON trAdv_CFL_w_max              =   2.0877342123861E-01
(PID.TID 0000.0001) %MON advcfl_uvel_max              =   6.6386248640642E-02
(PID.TID 0000.0001) %MON advcfl_vvel_max              =   5.2971457096479E-02
(PID.TID 0000.0001) %MON advcfl_wvel_max              =   2.1263416355844E-01
(PID.TID 0000.0001) %MON advcfl_W_hf_max              =   2.1708824895174E-01
(PID.TID 0000.0001) %MON pe_b_mean                    =  -3.3678573701603E-04
(PID.TID 0000.0001) %MON ke_max                       =   4.1655964806312E-01
(PID.TID 0000.0001) %MON ke_mean                      =   2.8087037793986E-04
(PID.TID 0000.0001) %MON ke_vol                       =   4.5818599895265E+16
(PID.TID 0000.0001) %MON vort_r_min                   =  -2.8672432059296E-04
(PID.TID 0000.0001) %MON vort_r_max                   =   4.0834789208949E-04
(PID.TID 0000.0001) %MON vort_a_mean                  =   8.2147590447427E-05
(PID.TID 0000.0001) %MON vort_a_sd                    =   9.7050315609616E-06
(PID.TID 0000.0001) %MON vort_p_mean                  =   8.4848810683237E-05
(PID.TID 0000.0001) %MON vort_p_sd                    =   3.5000675932043E-05
(PID.TID 0000.0001) %MON surfExpan_theta_mean         =  -1.7350933122460E-04
(PID.TID 0000.0001) %MON surfExpan_salt_mean          =  -3.5279136632814E-04
(PID.TID 0000.0001) // =======================================================
(PID.TID 0000.0001) // End MONITOR dynamic field statistics
(PID.TID 0000.0001) // =======================================================
(PID.TID 0000.0001) // =======================================================
(PID.TID 0000.0001) // Begin OBCS MONITOR field statistics
(PID.TID 0000.0001) // =======================================================
(PID.TID 0000.0001) %MON obc_E_uVel_max               =   2.4454108756523E-01
(PID.TID 0000.0001) %MON obc_E_uVel_min               =   1.7879062879266E-02
(PID.TID 0000.0001) %MON obc_E_uVel_mean              =   1.1750281496652E-01
(PID.TID 0000.0001) %MON obc_E_uVel_sd                =   5.1627236091118E-02
(PID.TID 0000.0001) %MON obc_E_uVel_Int               =   1.1227299453491E+06
(PID.TID 0000.0001) %MON obc_N_vVel_max               =   7.4691743168629E-02
(PID.TID 0000.0001) %MON obc_N_vVel_min               =  -6.0262950794057E-01
(PID.TID 0000.0001) %MON obc_N_vVel_mean              =  -6.3664618197084E-03
(PID.TID 0000.0001) %MON obc_N_vVel_sd                =   1.6634095857800E-02
(PID.TID 0000.0001) %MON obc_N_vVel_Int               =  -9.1136438677498E+07
(PID.TID 0000.0001) %MON obc_S_vVel_max               =   6.4179774281197E-01
(PID.TID 0000.0001) %MON obc_S_vVel_min               =  -1.0745867533534E-01
(PID.TID 0000.0001) %MON obc_S_vVel_mean              =  -6.5676180141110E-03
(PID.TID 0000.0001) %MON obc_S_vVel_sd                =   2.0093380403979E-02
(PID.TID 0000.0001) %MON obc_S_vVel_Int               =  -1.9993733629366E+08
(PID.TID 0000.0001) %MON obc_E_theta_max              =   1.7031576156616E+01
(PID.TID 0000.0001) %MON obc_E_theta_min              =   1.2988679885864E+01
(PID.TID 0000.0001) %MON obc_E_theta_mean             =   1.5361316191092E+01
(PID.TID 0000.0001) %MON obc_E_theta_sd               =   1.5938527426439E+00
(PID.TID 0000.0001) %MON obc_N_theta_max              =   1.6146039297829E+01
(PID.TID 0000.0001) %MON obc_N_theta_min              =   1.6878320541443E+00
(PID.TID 0000.0001) %MON obc_N_theta_mean             =   5.2225971079445E+00
(PID.TID 0000.0001) %MON obc_N_theta_sd               =   3.6304041664550E+00
(PID.TID 0000.0001) %MON obc_S_theta_max              =   2.5392500003777E+01
(PID.TID 0000.0001) %MON obc_S_theta_min              =   1.5161809533148E+00
(PID.TID 0000.0001) %MON obc_S_theta_mean             =   5.4082483078706E+00
(PID.TID 0000.0001) %MON obc_S_theta_sd               =   5.1183332590539E+00
(PID.TID 0000.0001) %MON obc_E_salt_max               =   3.8136505126953E+01
(PID.TID 0000.0001) %MON obc_E_salt_min               =   3.5754806518555E+01
(PID.TID 0000.0001) %MON obc_E_salt_mean              =   3.6401586390596E+01
(PID.TID 0000.0001) %MON obc_E_salt_sd                =   4.3532669310507E-01
(PID.TID 0000.0001) %MON obc_N_salt_max               =   3.6395883176796E+01
(PID.TID 0000.0001) %MON obc_N_salt_min               =   3.0617552813182E+01
(PID.TID 0000.0001) %MON obc_N_salt_mean              =   3.5063772086008E+01
(PID.TID 0000.0001) %MON obc_N_salt_sd                =   3.9120049569099E-01
(PID.TID 0000.0001) %MON obc_S_salt_max               =   3.7332477029970E+01
(PID.TID 0000.0001) %MON obc_S_salt_min               =   3.4852181420053E+01
(PID.TID 0000.0001) %MON obc_S_salt_mean              =   3.5186250902299E+01
(PID.TID 0000.0001) %MON obc_S_salt_sd                =   5.1365366923502E-01
(PID.TID 0000.0001) // =======================================================
(PID.TID 0000.0001) // End OBCS MONITOR field statistics
(PID.TID 0000.0001) // =======================================================
(PID.TID 0000.0001) // =======================================================
(PID.TID 0000.0001) // Begin MONITOR EXF statistics
(PID.TID 0000.0001) // =======================================================
(PID.TID 0000.0001) %MON exf_tsnumber                 =                     5
(PID.TID 0000.0001) %MON exf_time_sec                 =   1.2000000000000E+03
(PID.TID 0000.0001) %MON exf_ustress_max              =   7.8269426890613E-01
(PID.TID 0000.0001) %MON exf_ustress_min              =  -4.0672941929414E-01
(PID.TID 0000.0001) %MON exf_ustress_mean             =   6.3146474861063E-02
(PID.TID 0000.0001) %MON exf_ustress_sd               =   1.5354224136374E-01
(PID.TID 0000.0001) %MON exf_ustress_del2             =   3.1164854296525E-07
(PID.TID 0000.0001) %MON exf_vstress_max              =   4.1579636958891E-01
(PID.TID 0000.0001) %MON exf_vstress_min              =  -5.6229125720303E-01
(PID.TID 0000.0001) %MON exf_vstress_mean             =   1.0382248064808E-02
(PID.TID 0000.0001) %MON exf_vstress_sd               =   1.0090741006821E-01
(PID.TID 0000.0001) %MON exf_vstress_del2             =   2.5764811703214E-07
(PID.TID 0000.0001) %MON exf_hflux_max                =   7.0199912326915E+02
(PID.TID 0000.0001) %MON exf_hflux_min                =  -2.9701531673183E+02
(PID.TID 0000.0001) %MON exf_hflux_mean               =   2.0240209021648E+02
(PID.TID 0000.0001) %MON exf_hflux_sd                 =   1.2207251538073E+02
(PID.TID 0000.0001) %MON exf_hflux_del2               =   9.3002322189174E-02
(PID.TID 0000.0001) %MON exf_sflux_max                =   1.7234120308134E-07
(PID.TID 0000.0001) %MON exf_sflux_min                =  -1.3926735664940E-06
(PID.TID 0000.0001) %MON exf_sflux_mean               =   5.4702825860022E-09
(PID.TID 0000.0001) %MON exf_sflux_sd                 =   1.1498176329609E-07
(PID.TID 0000.0001) %MON exf_sflux_del2               =   4.6056350218670E-11
(PID.TID 0000.0001) %MON exf_uwind_max                =   1.9038714359038E+01
(PID.TID 0000.0001) %MON exf_uwind_min                =  -1.4969236750877E+01
(PID.TID 0000.0001) %MON exf_uwind_mean               =   2.5048960376998E+00
(PID.TID 0000.0001) %MON exf_uwind_sd                 =   6.6612888100150E+00
(PID.TID 0000.0001) %MON exf_uwind_del2               =   2.8410161182847E-03
(PID.TID 0000.0001) %MON exf_vwind_max                =   1.4410588721686E+01
(PID.TID 0000.0001) %MON exf_vwind_min                =  -1.2767018277065E+01
(PID.TID 0000.0001) %MON exf_vwind_mean               =   8.4581055818732E-01
(PID.TID 0000.0001) %MON exf_vwind_sd                 =   5.1906590867647E+00
(PID.TID 0000.0001) %MON exf_vwind_del2               =   2.0900873550947E-03
(PID.TID 0000.0001) %MON exf_wspeed_max               =   2.0330094361416E+01
(PID.TID 0000.0001) %MON exf_wspeed_min               =   3.0607569640764E-03
(PID.TID 0000.0001) %MON exf_wspeed_mean              =   7.7199673493407E+00
(PID.TID 0000.0001) %MON exf_wspeed_sd                =   4.3252415135553E+00
(PID.TID 0000.0001) %MON exf_wspeed_del2              =   3.5267214298812E-03
(PID.TID 0000.0001) %MON exf_atemp_max                =   2.9816683772317E+02
(PID.TID 0000.0001) %MON exf_atemp_min                =   2.7442375263243E+02
(PID.TID 0000.0001) %MON exf_atemp_mean               =   2.9068670055952E+02
(PID.TID 0000.0001) %MON exf_atemp_sd                 =   3.9433888043349E+00
(PID.TID 0000.0001) %MON exf_atemp_del2               =   6.8436267694148E-03
(PID.TID 0000.0001) %MON exf_aqh_max                  =   1.6787544028961E-02
(PID.TID 0000.0001) %MON exf_aqh_min                  =   2.7285894436605E-03
(PID.TID 0000.0001) %MON exf_aqh_mean                 =   9.4228858571813E-03
(PID.TID 0000.0001) %MON exf_aqh_sd                   =   2.8725157299326E-03
(PID.TID 0000.0001) %MON exf_aqh_del2                 =   3.7508784097120E-06
(PID.TID 0000.0001) %MON exf_lwflux_max               =   1.6100492253815E+02
(PID.TID 0000.0001) %MON exf_lwflux_min               =   8.0538957843365E+00
(PID.TID 0000.0001) %MON exf_lwflux_mean              =   6.2701172649841E+01
(PID.TID 0000.0001) %MON exf_lwflux_sd                =   2.3406525980181E+01
(PID.TID 0000.0001) %MON exf_lwflux_del2              =   2.5757019073765E-02
(PID.TID 0000.0001) %MON exf_evap_max                 =   1.9360698876082E-07
(PID.TID 0000.0001) %MON exf_evap_min                 =  -9.9505273924768E-08
(PID.TID 0000.0001) %MON exf_evap_mean                =   4.9605277096496E-08
(PID.TID 0000.0001) %MON exf_evap_sd                  =   3.8769878774947E-08
(PID.TID 0000.0001) %MON exf_evap_del2                =   2.4880264278893E-11
(PID.TID 0000.0001) %MON exf_precip_max               =   1.5707756941297E-06
(PID.TID 0000.0001) %MON exf_precip_min               =   0.0000000000000E+00
(PID.TID 0000.0001) %MON exf_precip_mean              =   4.2546634298529E-08
(PID.TID 0000.0001) %MON exf_precip_sd                =   1.1791064588283E-07
(PID.TID 0000.0001) %MON exf_precip_del2              =   5.0679785663245E-11
(PID.TID 0000.0001) %MON exf_swflux_max               =   0.0000000000000E+00
(PID.TID 0000.0001) %MON exf_swflux_min               =   0.0000000000000E+00
(PID.TID 0000.0001) %MON exf_swflux_mean              =   0.0000000000000E+00
(PID.TID 0000.0001) %MON exf_swflux_sd                =   0.0000000000000E+00
(PID.TID 0000.0001) %MON exf_swflux_del2              =   0.0000000000000E+00
(PID.TID 0000.0001) %MON exf_swdown_max               =   0.0000000000000E+00
(PID.TID 0000.0001) %MON exf_swdown_min               =   0.0000000000000E+00
(PID.TID 0000.0001) %MON exf_swdown_mean              =   0.0000000000000E+00
(PID.TID 0000.0001) %MON exf_swdown_sd                =   0.0000000000000E+00
(PID.TID 0000.0001) %MON exf_swdown_del2              =   0.0000000000000E+00
(PID.TID 0000.0001) %MON exf_lwdown_max               =   4.0522098466867E+02
(PID.TID 0000.0001) %MON exf_lwdown_min               =   2.2767370597179E+02
(PID.TID 0000.0001) %MON exf_lwdown_mean              =   3.4763050270172E+02
(PID.TID 0000.0001) %MON exf_lwdown_sd                =   2.8649461959868E+01
(PID.TID 0000.0001) %MON exf_lwdown_del2              =   1.3452745372531E-01
(PID.TID 0000.0001) %MON exf_apressure_max            =   1.0279296099314E+05
(PID.TID 0000.0001) %MON exf_apressure_min            =   9.9998241534199E+04
(PID.TID 0000.0001) %MON exf_apressure_mean           =   1.0216295475750E+05
(PID.TID 0000.0001) %MON exf_apressure_sd             =   4.9937808498538E+02
(PID.TID 0000.0001) %MON exf_apressure_del2           =   3.9519537194996E+01
(PID.TID 0000.0001) %MON exf_runoff_max               =   4.4374791284855E-08
(PID.TID 0000.0001) %MON exf_runoff_min               =   0.0000000000000E+00
(PID.TID 0000.0001) %MON exf_runoff_mean              =   1.5883602119650E-09
(PID.TID 0000.0001) %MON exf_runoff_sd                =   5.3902197283252E-09
(PID.TID 0000.0001) %MON exf_runoff_del2              =   2.2191549266395E-12
(PID.TID 0000.0001) // =======================================================
(PID.TID 0000.0001) // End MONITOR EXF statistics
(PID.TID 0000.0001) // =======================================================
 cg2d: Sum(rhs),rhsMax =   4.76906775825696E+02  3.99244967863632E-02
(PID.TID 0000.0001)      cg2d_init_res =   7.17891569041000E-01
(PID.TID 0000.0001)      cg2d_iters(min,last) =      -1     311
(PID.TID 0000.0001)      cg2d_last_res =   6.66130753034047E-12
(PID.TID 0000.0001) // =======================================================
(PID.TID 0000.0001) // Begin MONITOR dynamic field statistics
(PID.TID 0000.0001) // =======================================================
(PID.TID 0000.0001) %MON time_tsnumber                =                     6
(PID.TID 0000.0001) %MON time_secondsf                =   1.4400000000000E+03
(PID.TID 0000.0001) %MON dynstat_eta_max              =   1.3302343712183E+00
(PID.TID 0000.0001) %MON dynstat_eta_min              =  -5.4615931105839E-01
(PID.TID 0000.0001) %MON dynstat_eta_mean             =  -1.6218665384512E-02
(PID.TID 0000.0001) %MON dynstat_eta_sd               =   1.0850309722864E-01
(PID.TID 0000.0001) %MON dynstat_eta_del2             =   1.3294618102679E-06
(PID.TID 0000.0001) %MON dynstat_uvel_max             =   8.7970666400146E-01
(PID.TID 0000.0001) %MON dynstat_uvel_min             =  -4.8096886051818E-01
(PID.TID 0000.0001) %MON dynstat_uvel_mean            =  -8.7675848802934E-04
(PID.TID 0000.0001) %MON dynstat_uvel_sd              =   1.7188450617736E-02
(PID.TID 0000.0001) %MON dynstat_uvel_del2            =   1.5559242860646E-07
(PID.TID 0000.0001) %MON dynstat_vvel_max             =   8.4889791636598E-01
(PID.TID 0000.0001) %MON dynstat_vvel_min             =  -6.2988618981457E-01
(PID.TID 0000.0001) %MON dynstat_vvel_mean            =  -3.9209689966211E-03
(PID.TID 0000.0001) %MON dynstat_vvel_sd              =   1.6182161175657E-02
(PID.TID 0000.0001) %MON dynstat_vvel_del2            =   1.2908388310144E-07
(PID.TID 0000.0001) %MON dynstat_wvel_max             =   6.9539467857497E-03
(PID.TID 0000.0001) %MON dynstat_wvel_min             =  -5.4857154237838E-03
(PID.TID 0000.0001) %MON dynstat_wvel_mean            =  -6.6975439405882E-06
(PID.TID 0000.0001) %MON dynstat_wvel_sd              =   1.0701366904956E-04
(PID.TID 0000.0001) %MON dynstat_wvel_del2            =   1.1952885828016E-08
(PID.TID 0000.0001) %MON dynstat_theta_max            =   2.5557163610255E+01
(PID.TID 0000.0001) %MON dynstat_theta_min            =   1.4441539281705E+00
(PID.TID 0000.0001) %MON dynstat_theta_mean           =   5.5933962502099E+00
(PID.TID 0000.0001) %MON dynstat_theta_sd             =   4.7973244394623E+00
(PID.TID 0000.0001) %MON dynstat_theta_del2           =   1.5037486383779E-06
(PID.TID 0000.0001) %MON dynstat_salt_max             =   3.8095801111886E+01
(PID.TID 0000.0001) %MON dynstat_salt_min             =   3.0531432730274E+01
(PID.TID 0000.0001) %MON dynstat_salt_mean            =   3.5189817387244E+01
(PID.TID 0000.0001) %MON dynstat_salt_sd              =   4.6941332752916E-01
(PID.TID 0000.0001) %MON dynstat_salt_del2            =   2.7796079687179E-07
(PID.TID 0000.0001) %MON forcing_qnet_max             =   7.0987958745411E+02
(PID.TID 0000.0001) %MON forcing_qnet_min             =  -3.0205426905187E+02
(PID.TID 0000.0001) %MON forcing_qnet_mean            =   2.0338826503279E+02
(PID.TID 0000.0001) %MON forcing_qnet_sd              =   1.2369739732624E+02
(PID.TID 0000.0001) %MON forcing_qnet_del2            =   9.3096983086128E-04
(PID.TID 0000.0001) %MON forcing_qsw_max              =   0.0000000000000E+00
(PID.TID 0000.0001) %MON forcing_qsw_min              =   0.0000000000000E+00
(PID.TID 0000.0001) %MON forcing_qsw_mean             =   0.0000000000000E+00
(PID.TID 0000.0001) %MON forcing_qsw_sd               =   0.0000000000000E+00
(PID.TID 0000.0001) %MON forcing_qsw_del2             =   0.0000000000000E+00
(PID.TID 0000.0001) %MON forcing_empmr_max            =   1.7234120308134E-04
(PID.TID 0000.0001) %MON forcing_empmr_min            =  -1.3926735664940E-03
(PID.TID 0000.0001) %MON forcing_empmr_mean           =   5.4702825860022E-06
(PID.TID 0000.0001) %MON forcing_empmr_sd             =   1.1498176329609E-04
(PID.TID 0000.0001) %MON forcing_empmr_del2           =   2.9365503270723E-09
(PID.TID 0000.0001) %MON forcing_fu_max               =   7.8250522648412E-01
(PID.TID 0000.0001) %MON forcing_fu_min               =  -4.0662182470723E-01
(PID.TID 0000.0001) %MON forcing_fu_mean              =   6.3202773632050E-02
(PID.TID 0000.0001) %MON forcing_fu_sd                =   1.5359849671008E-01
(PID.TID 0000.0001) %MON forcing_fu_del2              =   2.9291967781162E-07
(PID.TID 0000.0001) %MON forcing_fv_max               =   4.1540204499867E-01
(PID.TID 0000.0001) %MON forcing_fv_min               =  -5.6549703591632E-01
(PID.TID 0000.0001) %MON forcing_fv_mean              =   1.0363803146038E-02
(PID.TID 0000.0001) %MON forcing_fv_sd                =   1.0103610851996E-01
(PID.TID 0000.0001) %MON forcing_fv_del2              =   2.3260120129737E-07
(PID.TID 0000.0001) %MON trAdv_CFL_u_max              =   6.2728288195056E-02
(PID.TID 0000.0001) %MON trAdv_CFL_v_max              =   5.3798375269779E-02
(PID.TID 0000.0001) %MON trAdv_CFL_w_max              =   2.3144844954308E-01
(PID.TID 0000.0001) %MON advcfl_uvel_max              =   6.2728287563679E-02
(PID.TID 0000.0001) %MON advcfl_vvel_max              =   5.3812639739217E-02
(PID.TID 0000.0001) %MON advcfl_wvel_max              =   2.3144844954308E-01
(PID.TID 0000.0001) %MON advcfl_W_hf_max              =   2.3144844954308E-01
(PID.TID 0000.0001) %MON pe_b_mean                    =  -3.8503344913771E-04
(PID.TID 0000.0001) %MON ke_max                       =   4.3502700369475E-01
(PID.TID 0000.0001) %MON ke_mean                      =   2.8446817801867E-04
(PID.TID 0000.0001) %MON ke_vol                       =   4.5818599895265E+16
(PID.TID 0000.0001) %MON vort_r_min                   =  -2.9246050277314E-04
(PID.TID 0000.0001) %MON vort_r_max                   =   3.9144537197547E-04
(PID.TID 0000.0001) %MON vort_a_mean                  =   8.2147590628909E-05
(PID.TID 0000.0001) %MON vort_a_sd                    =   9.7056368198739E-06
(PID.TID 0000.0001) %MON vort_p_mean                  =   8.4848810870687E-05
(PID.TID 0000.0001) %MON vort_p_sd                    =   3.5000647865164E-05
(PID.TID 0000.0001) %MON surfExpan_theta_mean         =  -1.3940376609518E-04
(PID.TID 0000.0001) %MON surfExpan_salt_mean          =  -3.1044539317590E-04
(PID.TID 0000.0001) // =======================================================
(PID.TID 0000.0001) // End MONITOR dynamic field statistics
(PID.TID 0000.0001) // =======================================================
(PID.TID 0000.0001) // =======================================================
(PID.TID 0000.0001) // Begin OBCS MONITOR field statistics
(PID.TID 0000.0001) // =======================================================
(PID.TID 0000.0001) %MON obc_E_uVel_max               =   2.3412749565567E-01
(PID.TID 0000.0001) %MON obc_E_uVel_min               =   1.3125578243863E-02
(PID.TID 0000.0001) %MON obc_E_uVel_mean              =   1.1281588146258E-01
(PID.TID 0000.0001) %MON obc_E_uVel_sd                =   5.0600214094992E-02
(PID.TID 0000.0001) %MON obc_E_uVel_Int               =   1.0779466727251E+06
(PID.TID 0000.0001) %MON obc_N_vVel_max               =   7.4593022427924E-02
(PID.TID 0000.0001) %MON obc_N_vVel_min               =  -6.0383213097301E-01
(PID.TID 0000.0001) %MON obc_N_vVel_mean              =  -6.4856799981993E-03
(PID.TID 0000.0001) %MON obc_N_vVel_sd                =   1.6691557841601E-02
(PID.TID 0000.0001) %MON obc_N_vVel_Int               =  -9.2843056972081E+07
(PID.TID 0000.0001) %MON obc_S_vVel_max               =   6.4267786968248E-01
(PID.TID 0000.0001) %MON obc_S_vVel_min               =  -1.0733703488579E-01
(PID.TID 0000.0001) %MON obc_S_vVel_mean              =  -6.2345372098892E-03
(PID.TID 0000.0001) %MON obc_S_vVel_sd                =   2.0076772151632E-02
(PID.TID 0000.0001) %MON obc_S_vVel_Int               =  -1.8979739078776E+08
(PID.TID 0000.0001) %MON obc_E_theta_max              =   1.7031576156616E+01
(PID.TID 0000.0001) %MON obc_E_theta_min              =   1.2988679885864E+01
(PID.TID 0000.0001) %MON obc_E_theta_mean             =   1.5361316191092E+01
(PID.TID 0000.0001) %MON obc_E_theta_sd               =   1.5938527426439E+00
(PID.TID 0000.0001) %MON obc_N_theta_max              =   1.6146044889237E+01
(PID.TID 0000.0001) %MON obc_N_theta_min              =   1.6877633799436E+00
(PID.TID 0000.0001) %MON obc_N_theta_mean             =   5.2225951816558E+00
(PID.TID 0000.0001) %MON obc_N_theta_sd               =   3.6304003815030E+00
(PID.TID 0000.0001) %MON obc_S_theta_max              =   2.5392487726597E+01
(PID.TID 0000.0001) %MON obc_S_theta_min              =   1.5161809315998E+00
(PID.TID 0000.0001) %MON obc_S_theta_mean             =   5.4082473867227E+00
(PID.TID 0000.0001) %MON obc_S_theta_sd               =   5.1183300636564E+00
(PID.TID 0000.0001) %MON obc_E_salt_max               =   3.8136505126953E+01
(PID.TID 0000.0001) %MON obc_E_salt_min               =   3.5754806518555E+01
(PID.TID 0000.0001) %MON obc_E_salt_mean              =   3.6401586390596E+01
(PID.TID 0000.0001) %MON obc_E_salt_sd                =   4.3532669310507E-01
(PID.TID 0000.0001) %MON obc_N_salt_max               =   3.6395884520252E+01
(PID.TID 0000.0001) %MON obc_N_salt_min               =   3.0617569376784E+01
(PID.TID 0000.0001) %MON obc_N_salt_mean              =   3.5063772156360E+01
(PID.TID 0000.0001) %MON obc_N_salt_sd                =   3.9120012368812E-01
(PID.TID 0000.0001) %MON obc_S_salt_max               =   3.7332467650845E+01
(PID.TID 0000.0001) %MON obc_S_salt_min               =   3.4852181418312E+01
(PID.TID 0000.0001) %MON obc_S_salt_mean              =   3.5186250942795E+01
(PID.TID 0000.0001) %MON obc_S_salt_sd                =   5.1365375533678E-01
(PID.TID 0000.0001) // =======================================================
(PID.TID 0000.0001) // End OBCS MONITOR field statistics
(PID.TID 0000.0001) // =======================================================
(PID.TID 0000.0001) // =======================================================
(PID.TID 0000.0001) // Begin MONITOR EXF statistics
(PID.TID 0000.0001) // =======================================================
(PID.TID 0000.0001) %MON exf_tsnumber                 =                     6
(PID.TID 0000.0001) %MON exf_time_sec                 =   1.4400000000000E+03
(PID.TID 0000.0001) %MON exf_ustress_max              =   7.7865128958471E-01
(PID.TID 0000.0001) %MON exf_ustress_min              =  -4.0397392324410E-01
(PID.TID 0000.0001) %MON exf_ustress_mean             =   6.3183298413745E-02
(PID.TID 0000.0001) %MON exf_ustress_sd               =   1.5336386596862E-01
(PID.TID 0000.0001) %MON exf_ustress_del2             =   3.0666599740529E-07
(PID.TID 0000.0001) %MON exf_vstress_max              =   4.1378080015585E-01
(PID.TID 0000.0001) %MON exf_vstress_min              =  -5.6138120409695E-01
(PID.TID 0000.0001) %MON exf_vstress_mean             =   1.0407070231520E-02
(PID.TID 0000.0001) %MON exf_vstress_sd               =   1.0076087424472E-01
(PID.TID 0000.0001) %MON exf_vstress_del2             =   2.5312180335268E-07
(PID.TID 0000.0001) %MON exf_hflux_max                =   6.9529855971232E+02
(PID.TID 0000.0001) %MON exf_hflux_min                =  -3.0070278686567E+02
(PID.TID 0000.0001) %MON exf_hflux_mean               =   2.0161992954269E+02
(PID.TID 0000.0001) %MON exf_hflux_sd                 =   1.2163689063873E+02
(PID.TID 0000.0001) %MON exf_hflux_del2               =   9.2645234028678E-02
(PID.TID 0000.0001) %MON exf_sflux_max                =   1.7104548093416E-07
(PID.TID 0000.0001) %MON exf_sflux_min                =  -1.5177112534222E-06
(PID.TID 0000.0001) %MON exf_sflux_mean               =   6.3833919559741E-09
(PID.TID 0000.0001) %MON exf_sflux_sd                 =   1.2223600208842E-07
(PID.TID 0000.0001) %MON exf_sflux_del2               =   4.9065427816527E-11
(PID.TID 0000.0001) %MON exf_uwind_max                =   1.9031265358131E+01
(PID.TID 0000.0001) %MON exf_uwind_min                =  -1.4937672743454E+01
(PID.TID 0000.0001) %MON exf_uwind_mean               =   2.5059254215254E+00
(PID.TID 0000.0001) %MON exf_uwind_sd                 =   6.6588566280788E+00
(PID.TID 0000.0001) %MON exf_uwind_del2               =   2.8402039371304E-03
(PID.TID 0000.0001) %MON exf_vwind_max                =   1.4385083256537E+01
(PID.TID 0000.0001) %MON exf_vwind_min                =  -1.2762034438096E+01
(PID.TID 0000.0001) %MON exf_vwind_mean               =   8.4749120530028E-01
(PID.TID 0000.0001) %MON exf_vwind_sd                 =   5.1851475188239E+00
(PID.TID 0000.0001) %MON exf_vwind_del2               =   2.0883150389676E-03
(PID.TID 0000.0001) %MON exf_wspeed_max               =   2.0291947879959E+01
(PID.TID 0000.0001) %MON exf_wspeed_min               =   9.6830012452967E-03
(PID.TID 0000.0001) %MON exf_wspeed_mean              =   7.7153092096515E+00
(PID.TID 0000.0001) %MON exf_wspeed_sd                =   4.3241223093304E+00
(PID.TID 0000.0001) %MON exf_wspeed_del2              =   3.5250251483209E-03
(PID.TID 0000.0001) %MON exf_atemp_max                =   2.9816464043476E+02
(PID.TID 0000.0001) %MON exf_atemp_min                =   2.7439815142379E+02
(PID.TID 0000.0001) %MON exf_atemp_mean               =   2.9068357967201E+02
(PID.TID 0000.0001) %MON exf_atemp_sd                 =   3.9434222990616E+00
(PID.TID 0000.0001) %MON exf_atemp_del2               =   6.8424021631277E-03
(PID.TID 0000.0001) %MON exf_aqh_max                  =   1.6780557728087E-02
(PID.TID 0000.0001) %MON exf_aqh_min                  =   2.7262947458965E-03
(PID.TID 0000.0001) %MON exf_aqh_mean                 =   9.4216975062277E-03
(PID.TID 0000.0001) %MON exf_aqh_sd                   =   2.8727005262459E-03
(PID.TID 0000.0001) %MON exf_aqh_del2                 =   3.7503665973497E-06
(PID.TID 0000.0001) %MON exf_lwflux_max               =   1.6261818732280E+02
(PID.TID 0000.0001) %MON exf_lwflux_min               =   2.0728734312912E-01
(PID.TID 0000.0001) %MON exf_lwflux_mean              =   6.1927188994427E+01
(PID.TID 0000.0001) %MON exf_lwflux_sd                =   2.4691349613646E+01
(PID.TID 0000.0001) %MON exf_lwflux_del2              =   2.5655829441144E-02
(PID.TID 0000.0001) %MON exf_evap_max                 =   1.9274354649902E-07
(PID.TID 0000.0001) %MON exf_evap_min                 =  -9.9788596704156E-08
(PID.TID 0000.0001) %MON exf_evap_mean                =   4.9594488529547E-08
(PID.TID 0000.0001) %MON exf_evap_sd                  =   3.8716210149241E-08
(PID.TID 0000.0001) %MON exf_evap_del2                =   2.4865630953312E-11
(PID.TID 0000.0001) %MON exf_precip_max               =   1.6964377496601E-06
(PID.TID 0000.0001) %MON exf_precip_min               =   0.0000000000000E+00
(PID.TID 0000.0001) %MON exf_precip_mean              =   4.1622736361608E-08
(PID.TID 0000.0001) %MON exf_precip_sd                =   1.2612153066584E-07
(PID.TID 0000.0001) %MON exf_precip_del2              =   5.3755483597987E-11
(PID.TID 0000.0001) %MON exf_swflux_max               =   0.0000000000000E+00
(PID.TID 0000.0001) %MON exf_swflux_min               =   0.0000000000000E+00
(PID.TID 0000.0001) %MON exf_swflux_mean              =   0.0000000000000E+00
(PID.TID 0000.0001) %MON exf_swflux_sd                =   0.0000000000000E+00
(PID.TID 0000.0001) %MON exf_swflux_del2              =   0.0000000000000E+00
(PID.TID 0000.0001) %MON exf_swdown_max               =   0.0000000000000E+00
(PID.TID 0000.0001) %MON exf_swdown_min               =   0.0000000000000E+00
(PID.TID 0000.0001) %MON exf_swdown_mean              =   0.0000000000000E+00
(PID.TID 0000.0001) %MON exf_swdown_sd                =   0.0000000000000E+00
(PID.TID 0000.0001) %MON exf_swdown_del2              =   0.0000000000000E+00
(PID.TID 0000.0001) %MON exf_lwdown_max               =   4.0922404091225E+02
(PID.TID 0000.0001) %MON exf_lwdown_min               =   2.2687892042835E+02
(PID.TID 0000.0001) %MON exf_lwdown_mean              =   3.4842455606779E+02
(PID.TID 0000.0001) %MON exf_lwdown_sd                =   2.9896777848880E+01
(PID.TID 0000.0001) %MON exf_lwdown_del2              =   1.3487922628858E-01
(PID.TID 0000.0001) %MON exf_apressure_max            =   1.0279447202553E+05
(PID.TID 0000.0001) %MON exf_apressure_min            =   1.0000228416919E+05
(PID.TID 0000.0001) %MON exf_apressure_mean           =   1.0216373212845E+05
(PID.TID 0000.0001) %MON exf_apressure_sd             =   4.9917544811819E+02
(PID.TID 0000.0001) %MON exf_apressure_del2           =   3.9519844464758E+01
(PID.TID 0000.0001) %MON exf_runoff_max               =   4.4374791284855E-08
(PID.TID 0000.0001) %MON exf_runoff_min               =   0.0000000000000E+00
(PID.TID 0000.0001) %MON exf_runoff_mean              =   1.5883602119650E-09
(PID.TID 0000.0001) %MON exf_runoff_sd                =   5.3902197283252E-09
(PID.TID 0000.0001) %MON exf_runoff_del2              =   2.2191549266395E-12
(PID.TID 0000.0001) // =======================================================
(PID.TID 0000.0001) // End MONITOR EXF statistics
(PID.TID 0000.0001) // =======================================================
 cg2d: Sum(rhs),rhsMax =   5.30624203217192E+02  3.93391566540852E-02
(PID.TID 0000.0001)      cg2d_init_res =   6.81153085183383E-01
(PID.TID 0000.0001)      cg2d_iters(min,last) =      -1     310
(PID.TID 0000.0001)      cg2d_last_res =   6.85753901677021E-12
(PID.TID 0000.0001) // =======================================================
(PID.TID 0000.0001) // Begin MONITOR dynamic field statistics
(PID.TID 0000.0001) // =======================================================
(PID.TID 0000.0001) %MON time_tsnumber                =                     7
(PID.TID 0000.0001) %MON time_secondsf                =   1.6800000000000E+03
(PID.TID 0000.0001) %MON dynstat_eta_max              =   1.2378207149703E+00
(PID.TID 0000.0001) %MON dynstat_eta_min              =  -5.6881759105765E-01
(PID.TID 0000.0001) %MON dynstat_eta_mean             =  -1.8045489880077E-02
(PID.TID 0000.0001) %MON dynstat_eta_sd               =   1.1975380654285E-01
(PID.TID 0000.0001) %MON dynstat_eta_del2             =   1.3194206768089E-06
(PID.TID 0000.0001) %MON dynstat_uvel_max             =   7.9908091791609E-01
(PID.TID 0000.0001) %MON dynstat_uvel_min             =  -5.0656487830081E-01
(PID.TID 0000.0001) %MON dynstat_uvel_mean            =  -1.1000936384828E-03
(PID.TID 0000.0001) %MON dynstat_uvel_sd              =   1.7210435089746E-02
(PID.TID 0000.0001) %MON dynstat_uvel_del2            =   1.6437317342375E-07
(PID.TID 0000.0001) %MON dynstat_vvel_max             =   8.4566166561825E-01
(PID.TID 0000.0001) %MON dynstat_vvel_min             =  -6.3302082582704E-01
(PID.TID 0000.0001) %MON dynstat_vvel_mean            =  -4.4148940849794E-03
(PID.TID 0000.0001) %MON dynstat_vvel_sd              =   1.6232306904212E-02
(PID.TID 0000.0001) %MON dynstat_vvel_del2            =   1.3560063627129E-07
(PID.TID 0000.0001) %MON dynstat_wvel_max             =   6.8115470450790E-03
(PID.TID 0000.0001) %MON dynstat_wvel_min             =  -5.2483004615718E-03
(PID.TID 0000.0001) %MON dynstat_wvel_mean            =  -6.0576581058478E-06
(PID.TID 0000.0001) %MON dynstat_wvel_sd              =   1.1069332176752E-04
(PID.TID 0000.0001) %MON dynstat_wvel_del2            =   1.2161853260469E-08
(PID.TID 0000.0001) %MON dynstat_theta_max            =   2.5557302635797E+01
(PID.TID 0000.0001) %MON dynstat_theta_min            =   1.4441539320466E+00
(PID.TID 0000.0001) %MON dynstat_theta_mean           =   5.5933978899532E+00
(PID.TID 0000.0001) %MON dynstat_theta_sd             =   4.7973211847009E+00
(PID.TID 0000.0001) %MON dynstat_theta_del2           =   1.5083131303838E-06
(PID.TID 0000.0001) %MON dynstat_salt_max             =   3.8095289685279E+01
(PID.TID 0000.0001) %MON dynstat_salt_min             =   3.0532049899135E+01
(PID.TID 0000.0001) %MON dynstat_salt_mean            =   3.5189817289389E+01
(PID.TID 0000.0001) %MON dynstat_salt_sd              =   4.6941588084970E-01
(PID.TID 0000.0001) %MON dynstat_salt_del2            =   2.8100718180703E-07
(PID.TID 0000.0001) %MON forcing_qnet_max             =   7.0236634861321E+02
(PID.TID 0000.0001) %MON forcing_qnet_min             =  -3.0565112872050E+02
(PID.TID 0000.0001) %MON forcing_qnet_mean            =   2.0268888515885E+02
(PID.TID 0000.0001) %MON forcing_qnet_sd              =   1.2310804399437E+02
(PID.TID 0000.0001) %MON forcing_qnet_del2            =   9.4434612055589E-04
(PID.TID 0000.0001) %MON forcing_qsw_max              =   0.0000000000000E+00
(PID.TID 0000.0001) %MON forcing_qsw_min              =   0.0000000000000E+00
(PID.TID 0000.0001) %MON forcing_qsw_mean             =   0.0000000000000E+00
(PID.TID 0000.0001) %MON forcing_qsw_sd               =   0.0000000000000E+00
(PID.TID 0000.0001) %MON forcing_qsw_del2             =   0.0000000000000E+00
(PID.TID 0000.0001) %MON forcing_empmr_max            =   1.7104548093416E-04
(PID.TID 0000.0001) %MON forcing_empmr_min            =  -1.5177112534222E-03
(PID.TID 0000.0001) %MON forcing_empmr_mean           =   6.3833919559741E-06
(PID.TID 0000.0001) %MON forcing_empmr_sd             =   1.2223600208842E-04
(PID.TID 0000.0001) %MON forcing_empmr_del2           =   3.1276357298797E-09
(PID.TID 0000.0001) %MON forcing_fu_max               =   7.7862048775411E-01
(PID.TID 0000.0001) %MON forcing_fu_min               =  -4.0393137142468E-01
(PID.TID 0000.0001) %MON forcing_fu_mean              =   6.3239991542817E-02
(PID.TID 0000.0001) %MON forcing_fu_sd                =   1.5342034063798E-01
(PID.TID 0000.0001) %MON forcing_fu_del2              =   2.8774069821066E-07
(PID.TID 0000.0001) %MON forcing_fv_max               =   4.1325859556145E-01
(PID.TID 0000.0001) %MON forcing_fv_min               =  -5.6479449869294E-01
(PID.TID 0000.0001) %MON forcing_fv_mean              =   1.0388882962759E-02
(PID.TID 0000.0001) %MON forcing_fv_sd                =   1.0088994872669E-01
(PID.TID 0000.0001) %MON forcing_fv_del2              =   2.2794345037892E-07
(PID.TID 0000.0001) %MON trAdv_CFL_u_max              =   5.6979195635749E-02
(PID.TID 0000.0001) %MON trAdv_CFL_v_max              =   5.3593279899845E-02
(PID.TID 0000.0001) %MON trAdv_CFL_w_max              =   2.5191842215545E-01
(PID.TID 0000.0001) %MON advcfl_uvel_max              =   5.6979195062237E-02
(PID.TID 0000.0001) %MON advcfl_vvel_max              =   5.3607489988893E-02
(PID.TID 0000.0001) %MON advcfl_wvel_max              =   2.5191842215545E-01
(PID.TID 0000.0001) %MON advcfl_W_hf_max              =   2.5191842215545E-01
(PID.TID 0000.0001) %MON pe_b_mean                    =  -4.2691467831982E-04
(PID.TID 0000.0001) %MON ke_max                       =   4.3746266087378E-01
(PID.TID 0000.0001) %MON ke_mean                      =   2.8792056390761E-04
(PID.TID 0000.0001) %MON ke_vol                       =   4.5818599895265E+16
(PID.TID 0000.0001) %MON vort_r_min                   =  -3.0181736662060E-04
(PID.TID 0000.0001) %MON vort_r_max                   =   3.9047665601398E-04
(PID.TID 0000.0001) %MON vort_a_mean                  =   8.2147590825695E-05
(PID.TID 0000.0001) %MON vort_a_sd                    =   9.7062113125184E-06
(PID.TID 0000.0001) %MON vort_p_mean                  =   8.4848811073943E-05
(PID.TID 0000.0001) %MON vort_p_sd                    =   3.5000911931109E-05
(PID.TID 0000.0001) %MON surfExpan_theta_mean         =  -1.0777346205611E-04
(PID.TID 0000.0001) %MON surfExpan_salt_mean          =  -2.6862930601732E-04
(PID.TID 0000.0001) // =======================================================
(PID.TID 0000.0001) // End MONITOR dynamic field statistics
(PID.TID 0000.0001) // =======================================================
(PID.TID 0000.0001) // =======================================================
(PID.TID 0000.0001) // Begin OBCS MONITOR field statistics
(PID.TID 0000.0001) // =======================================================
(PID.TID 0000.0001) %MON obc_E_uVel_max               =   2.2345944055515E-01
(PID.TID 0000.0001) %MON obc_E_uVel_min               =   8.2127206254853E-03
(PID.TID 0000.0001) %MON obc_E_uVel_mean              =   1.0801384278372E-01
(PID.TID 0000.0001) %MON obc_E_uVel_sd                =   4.9566232839495E-02
(PID.TID 0000.0001) %MON obc_E_uVel_Int               =   1.0320635794135E+06
(PID.TID 0000.0001) %MON obc_N_vVel_max               =   7.4499434936691E-02
(PID.TID 0000.0001) %MON obc_N_vVel_min               =  -6.0435057849322E-01
(PID.TID 0000.0001) %MON obc_N_vVel_mean              =  -6.5967629069141E-03
(PID.TID 0000.0001) %MON obc_N_vVel_sd                =   1.6739775762129E-02
(PID.TID 0000.0001) %MON obc_N_vVel_Int               =  -9.4433218192692E+07
(PID.TID 0000.0001) %MON obc_S_vVel_max               =   6.4354097980197E-01
(PID.TID 0000.0001) %MON obc_S_vVel_min               =  -1.0721759090469E-01
(PID.TID 0000.0001) %MON obc_S_vVel_mean              =  -5.8937522583932E-03
(PID.TID 0000.0001) %MON obc_S_vVel_sd                =   2.0059177984516E-02
(PID.TID 0000.0001) %MON obc_S_vVel_Int               =  -1.7942290869932E+08
(PID.TID 0000.0001) %MON obc_E_theta_max              =   1.7031576156616E+01
(PID.TID 0000.0001) %MON obc_E_theta_min              =   1.2988679885864E+01
(PID.TID 0000.0001) %MON obc_E_theta_mean             =   1.5361316191092E+01
(PID.TID 0000.0001) %MON obc_E_theta_sd               =   1.5938527426439E+00
(PID.TID 0000.0001) %MON obc_N_theta_max              =   1.6146050480645E+01
(PID.TID 0000.0001) %MON obc_N_theta_min              =   1.6876947057429E+00
(PID.TID 0000.0001) %MON obc_N_theta_mean             =   5.2225932553671E+00
(PID.TID 0000.0001) %MON obc_N_theta_sd               =   3.6303965966092E+00
(PID.TID 0000.0001) %MON obc_S_theta_max              =   2.5392475449416E+01
(PID.TID 0000.0001) %MON obc_S_theta_min              =   1.5161809098848E+00
(PID.TID 0000.0001) %MON obc_S_theta_mean             =   5.4082464655748E+00
(PID.TID 0000.0001) %MON obc_S_theta_sd               =   5.1183268682720E+00
(PID.TID 0000.0001) %MON obc_E_salt_max               =   3.8136505126953E+01
(PID.TID 0000.0001) %MON obc_E_salt_min               =   3.5754806518555E+01
(PID.TID 0000.0001) %MON obc_E_salt_mean              =   3.6401586390596E+01
(PID.TID 0000.0001) %MON obc_E_salt_sd                =   4.3532669310507E-01
(PID.TID 0000.0001) %MON obc_N_salt_max               =   3.6395885863708E+01
(PID.TID 0000.0001) %MON obc_N_salt_min               =   3.0617585940386E+01
(PID.TID 0000.0001) %MON obc_N_salt_mean              =   3.5063772226713E+01
(PID.TID 0000.0001) %MON obc_N_salt_sd                =   3.9119975170640E-01
(PID.TID 0000.0001) %MON obc_S_salt_max               =   3.7332458271720E+01
(PID.TID 0000.0001) %MON obc_S_salt_min               =   3.4852181416572E+01
(PID.TID 0000.0001) %MON obc_S_salt_mean              =   3.5186250983291E+01
(PID.TID 0000.0001) %MON obc_S_salt_sd                =   5.1365384143950E-01
(PID.TID 0000.0001) // =======================================================
(PID.TID 0000.0001) // End OBCS MONITOR field statistics
(PID.TID 0000.0001) // =======================================================
(PID.TID 0000.0001) // =======================================================
(PID.TID 0000.0001) // Begin MONITOR EXF statistics
(PID.TID 0000.0001) // =======================================================
(PID.TID 0000.0001) %MON exf_tsnumber                 =                     7
(PID.TID 0000.0001) %MON exf_time_sec                 =   1.6800000000000E+03
(PID.TID 0000.0001) %MON exf_ustress_max              =   7.7951091951660E-01
(PID.TID 0000.0001) %MON exf_ustress_min              =  -4.0130819153646E-01
(PID.TID 0000.0001) %MON exf_ustress_mean             =   6.3247344748009E-02
(PID.TID 0000.0001) %MON exf_ustress_sd               =   1.5326539780725E-01
(PID.TID 0000.0001) %MON exf_ustress_del2             =   3.0563591022292E-07
(PID.TID 0000.0001) %MON exf_vstress_max              =   4.1260988649385E-01
(PID.TID 0000.0001) %MON exf_vstress_min              =  -5.6092054944234E-01
(PID.TID 0000.0001) %MON exf_vstress_mean             =   1.0442892598837E-02
(PID.TID 0000.0001) %MON exf_vstress_sd               =   1.0069038844912E-01
(PID.TID 0000.0001) %MON exf_vstress_del2             =   2.5233872543536E-07
(PID.TID 0000.0001) %MON exf_hflux_max                =   6.8912659769386E+02
(PID.TID 0000.0001) %MON exf_hflux_min                =  -3.0450578809921E+02
(PID.TID 0000.0001) %MON exf_hflux_mean               =   2.0085969944087E+02
(PID.TID 0000.0001) %MON exf_hflux_sd                 =   1.2127994274787E+02
(PID.TID 0000.0001) %MON exf_hflux_del2               =   9.2311332204971E-02
(PID.TID 0000.0001) %MON exf_sflux_max                =   1.6976205724111E-07
(PID.TID 0000.0001) %MON exf_sflux_min                =  -1.6427561679215E-06
(PID.TID 0000.0001) %MON exf_sflux_mean               =   7.3036204369878E-09
(PID.TID 0000.0001) %MON exf_sflux_sd                 =   1.3030928850204E-07
(PID.TID 0000.0001) %MON exf_sflux_del2               =   5.2390159031204E-11
(PID.TID 0000.0001) %MON exf_uwind_max                =   1.9081634799396E+01
(PID.TID 0000.0001) %MON exf_uwind_min                =  -1.4907784716211E+01
(PID.TID 0000.0001) %MON exf_uwind_mean               =   2.5070439953813E+00
(PID.TID 0000.0001) %MON exf_uwind_sd                 =   6.6572386484670E+00
(PID.TID 0000.0001) %MON exf_uwind_del2               =   2.8397150022441E-03
(PID.TID 0000.0001) %MON exf_vwind_max                =   1.4378922039816E+01
(PID.TID 0000.0001) %MON exf_vwind_min                =  -1.2760718468976E+01
(PID.TID 0000.0001) %MON exf_vwind_mean               =   8.4918355115657E-01
(PID.TID 0000.0001) %MON exf_vwind_sd                 =   5.1812073208224E+00
(PID.TID 0000.0001) %MON exf_vwind_del2               =   2.0871680431583E-03
(PID.TID 0000.0001) %MON exf_wspeed_max               =   2.0257483522088E+01
(PID.TID 0000.0001) %MON exf_wspeed_min               =   1.5870895413288E-02
(PID.TID 0000.0001) %MON exf_wspeed_mean              =   7.7118625608352E+00
(PID.TID 0000.0001) %MON exf_wspeed_sd                =   4.3240367557533E+00
(PID.TID 0000.0001) %MON exf_wspeed_del2              =   3.5239563830192E-03
(PID.TID 0000.0001) %MON exf_atemp_max                =   2.9816244314634E+02
(PID.TID 0000.0001) %MON exf_atemp_min                =   2.7437255021515E+02
(PID.TID 0000.0001) %MON exf_atemp_mean               =   2.9068045878449E+02
(PID.TID 0000.0001) %MON exf_atemp_sd                 =   3.9435982887258E+00
(PID.TID 0000.0001) %MON exf_atemp_del2               =   6.8411912861232E-03
(PID.TID 0000.0001) %MON exf_aqh_max                  =   1.6773571427214E-02
(PID.TID 0000.0001) %MON exf_aqh_min                  =   2.7240000481325E-03
(PID.TID 0000.0001) %MON exf_aqh_mean                 =   9.4205091552740E-03
(PID.TID 0000.0001) %MON exf_aqh_sd                   =   2.8730580967579E-03
(PID.TID 0000.0001) %MON exf_aqh_del2                 =   3.7498765699224E-06
(PID.TID 0000.0001) %MON exf_lwflux_max               =   1.6423121061867E+02
(PID.TID 0000.0001) %MON exf_lwflux_min               =  -7.6995213454019E+00
(PID.TID 0000.0001) %MON exf_lwflux_mean              =   6.1153614113980E+01
(PID.TID 0000.0001) %MON exf_lwflux_sd                =   2.6148008607882E+01
(PID.TID 0000.0001) %MON exf_lwflux_del2              =   2.5594795055513E-02
(PID.TID 0000.0001) %MON exf_evap_max                 =   1.9190366952044E-07
(PID.TID 0000.0001) %MON exf_evap_min                 =  -1.0014606793354E-07
(PID.TID 0000.0001) %MON exf_evap_mean                =   4.9590819073641E-08
(PID.TID 0000.0001) %MON exf_evap_sd                  =   3.8674900211537E-08
(PID.TID 0000.0001) %MON exf_evap_del2                =   2.4856372889650E-11
(PID.TID 0000.0001) %MON exf_precip_max               =   1.8220998051905E-06
(PID.TID 0000.0001) %MON exf_precip_min               =   0.0000000000000E+00
(PID.TID 0000.0001) %MON exf_precip_mean              =   4.0698838424688E-08
(PID.TID 0000.0001) %MON exf_precip_sd                =   1.3500927201924E-07
(PID.TID 0000.0001) %MON exf_precip_del2              =   5.7111960077798E-11
(PID.TID 0000.0001) %MON exf_swflux_max               =   0.0000000000000E+00
(PID.TID 0000.0001) %MON exf_swflux_min               =   0.0000000000000E+00
(PID.TID 0000.0001) %MON exf_swflux_mean              =   0.0000000000000E+00
(PID.TID 0000.0001) %MON exf_swflux_sd                =   0.0000000000000E+00
(PID.TID 0000.0001) %MON exf_swflux_del2              =   0.0000000000000E+00
(PID.TID 0000.0001) %MON exf_swdown_max               =   0.0000000000000E+00
(PID.TID 0000.0001) %MON exf_swdown_min               =   0.0000000000000E+00
(PID.TID 0000.0001) %MON exf_swdown_mean              =   0.0000000000000E+00
(PID.TID 0000.0001) %MON exf_swdown_sd                =   0.0000000000000E+00
(PID.TID 0000.0001) %MON exf_swdown_del2              =   0.0000000000000E+00
(PID.TID 0000.0001) %MON exf_lwdown_max               =   4.1505412793497E+02
(PID.TID 0000.0001) %MON exf_lwdown_min               =   2.2448607473773E+02
(PID.TID 0000.0001) %MON exf_lwdown_mean              =   3.4921860943386E+02
(PID.TID 0000.0001) %MON exf_lwdown_sd                =   3.1303096366410E+01
(PID.TID 0000.0001) %MON exf_lwdown_del2              =   1.3523820722458E-01
(PID.TID 0000.0001) %MON exf_apressure_max            =   1.0279678232205E+05
(PID.TID 0000.0001) %MON exf_apressure_min            =   1.0000622433023E+05
(PID.TID 0000.0001) %MON exf_apressure_mean           =   1.0216450949940E+05
(PID.TID 0000.0001) %MON exf_apressure_sd             =   4.9901253611380E+02
(PID.TID 0000.0001) %MON exf_apressure_del2           =   3.9520151815937E+01
(PID.TID 0000.0001) %MON exf_runoff_max               =   4.4374791284855E-08
(PID.TID 0000.0001) %MON exf_runoff_min               =   0.0000000000000E+00
(PID.TID 0000.0001) %MON exf_runoff_mean              =   1.5883602119650E-09
(PID.TID 0000.0001) %MON exf_runoff_sd                =   5.3902197283252E-09
(PID.TID 0000.0001) %MON exf_runoff_del2              =   2.2191549266395E-12
(PID.TID 0000.0001) // =======================================================
(PID.TID 0000.0001) // End MONITOR EXF statistics
(PID.TID 0000.0001) // =======================================================
 cg2d: Sum(rhs),rhsMax =   5.76775598964108E+02  3.79722867860805E-02
(PID.TID 0000.0001)      cg2d_init_res =   6.50304247085107E-01
(PID.TID 0000.0001)      cg2d_iters(min,last) =      -1     310
(PID.TID 0000.0001)      cg2d_last_res =   6.60829334904435E-12
(PID.TID 0000.0001) // =======================================================
(PID.TID 0000.0001) // Begin MONITOR dynamic field statistics
(PID.TID 0000.0001) // =======================================================
(PID.TID 0000.0001) %MON time_tsnumber                =                     8
(PID.TID 0000.0001) %MON time_secondsf                =   1.9200000000000E+03
(PID.TID 0000.0001) %MON dynstat_eta_max              =   1.1432721818334E+00
(PID.TID 0000.0001) %MON dynstat_eta_min              =  -5.8469150341305E-01
(PID.TID 0000.0001) %MON dynstat_eta_mean             =  -1.9615008458108E-02
(PID.TID 0000.0001) %MON dynstat_eta_sd               =   1.3014482751821E-01
(PID.TID 0000.0001) %MON dynstat_eta_del2             =   1.3159050867656E-06
(PID.TID 0000.0001) %MON dynstat_uvel_max             =   7.3990929348527E-01
(PID.TID 0000.0001) %MON dynstat_uvel_min             =  -4.8644979794636E-01
(PID.TID 0000.0001) %MON dynstat_uvel_mean            =  -1.3361858667557E-03
(PID.TID 0000.0001) %MON dynstat_uvel_sd              =   1.7220239097233E-02
(PID.TID 0000.0001) %MON dynstat_uvel_del2            =   1.7284556273499E-07
(PID.TID 0000.0001) %MON dynstat_vvel_max             =   8.3689891469162E-01
(PID.TID 0000.0001) %MON dynstat_vvel_min             =  -6.3577706489918E-01
(PID.TID 0000.0001) %MON dynstat_vvel_mean            =  -4.8639629459012E-03
(PID.TID 0000.0001) %MON dynstat_vvel_sd              =   1.6279347196746E-02
(PID.TID 0000.0001) %MON dynstat_vvel_del2            =   1.4225172094175E-07
(PID.TID 0000.0001) %MON dynstat_wvel_max             =   6.6217800013602E-03
(PID.TID 0000.0001) %MON dynstat_wvel_min             =  -5.5450536099846E-03
(PID.TID 0000.0001) %MON dynstat_wvel_mean            =  -5.4106865353859E-06
(PID.TID 0000.0001) %MON dynstat_wvel_sd              =   1.1412287947008E-04
(PID.TID 0000.0001) %MON dynstat_wvel_del2            =   1.2450367055169E-08
(PID.TID 0000.0001) %MON dynstat_theta_max            =   2.5557990151101E+01
(PID.TID 0000.0001) %MON dynstat_theta_min            =   1.4441539359227E+00
(PID.TID 0000.0001) %MON dynstat_theta_mean           =   5.5933981644209E+00
(PID.TID 0000.0001) %MON dynstat_theta_sd             =   4.7973155874229E+00
(PID.TID 0000.0001) %MON dynstat_theta_del2           =   1.5131104028243E-06
(PID.TID 0000.0001) %MON dynstat_salt_max             =   3.8094659642193E+01
(PID.TID 0000.0001) %MON dynstat_salt_min             =   3.0532659211075E+01
(PID.TID 0000.0001) %MON dynstat_salt_mean            =   3.5189816989608E+01
(PID.TID 0000.0001) %MON dynstat_salt_sd              =   4.6941821684254E-01
(PID.TID 0000.0001) %MON dynstat_salt_del2            =   2.8468478379051E-07
(PID.TID 0000.0001) %MON forcing_qnet_max             =   6.9495137052416E+02
(PID.TID 0000.0001) %MON forcing_qnet_min             =  -3.0936491660157E+02
(PID.TID 0000.0001) %MON forcing_qnet_mean            =   2.0201228767726E+02
(PID.TID 0000.0001) %MON forcing_qnet_sd              =   1.2261512649127E+02
(PID.TID 0000.0001) %MON forcing_qnet_del2            =   9.6337467146217E-04
(PID.TID 0000.0001) %MON forcing_qsw_max              =   0.0000000000000E+00
(PID.TID 0000.0001) %MON forcing_qsw_min              =   0.0000000000000E+00
(PID.TID 0000.0001) %MON forcing_qsw_mean             =   0.0000000000000E+00
(PID.TID 0000.0001) %MON forcing_qsw_sd               =   0.0000000000000E+00
(PID.TID 0000.0001) %MON forcing_qsw_del2             =   0.0000000000000E+00
(PID.TID 0000.0001) %MON forcing_empmr_max            =   1.6976205724111E-04
(PID.TID 0000.0001) %MON forcing_empmr_min            =  -1.6427561679215E-03
(PID.TID 0000.0001) %MON forcing_empmr_mean           =   7.3036204369878E-06
(PID.TID 0000.0001) %MON forcing_empmr_sd             =   1.3030928850204E-04
(PID.TID 0000.0001) %MON forcing_empmr_del2           =   3.3391027225043E-09
(PID.TID 0000.0001) %MON forcing_fu_max               =   7.7949534366196E-01
(PID.TID 0000.0001) %MON forcing_fu_min               =  -4.0128632238867E-01
(PID.TID 0000.0001) %MON forcing_fu_mean              =   6.3304452185946E-02
(PID.TID 0000.0001) %MON forcing_fu_sd                =   1.5332207610292E-01
(PID.TID 0000.0001) %MON forcing_fu_del2              =   2.8664100864667E-07
(PID.TID 0000.0001) %MON forcing_fv_max               =   4.1222386559439E-01
(PID.TID 0000.0001) %MON forcing_fv_min               =  -5.6452981194351E-01
(PID.TID 0000.0001) %MON forcing_fv_mean              =   1.0424979294606E-02
(PID.TID 0000.0001) %MON forcing_fv_sd                =   1.0081977749779E-01
(PID.TID 0000.0001) %MON forcing_fv_del2              =   2.2716141481249E-07
(PID.TID 0000.0001) %MON trAdv_CFL_u_max              =   5.2735398436321E-02
(PID.TID 0000.0001) %MON trAdv_CFL_v_max              =   5.3037946032654E-02
(PID.TID 0000.0001) %MON trAdv_CFL_w_max              =   2.6616257327926E-01
(PID.TID 0000.0001) %MON advcfl_uvel_max              =   5.2735397904982E-02
(PID.TID 0000.0001) %MON advcfl_vvel_max              =   5.3052008876679E-02
(PID.TID 0000.0001) %MON advcfl_wvel_max              =   2.6616257327926E-01
(PID.TID 0000.0001) %MON advcfl_W_hf_max              =   2.6616257327926E-01
(PID.TID 0000.0001) %MON pe_b_mean                    =  -4.6243135163804E-04
(PID.TID 0000.0001) %MON ke_max                       =   4.3474353772692E-01
(PID.TID 0000.0001) %MON ke_mean                      =   2.9120842068627E-04
(PID.TID 0000.0001) %MON ke_vol                       =   4.5818599895265E+16
(PID.TID 0000.0001) %MON vort_r_min                   =  -3.0964763239214E-04
(PID.TID 0000.0001) %MON vort_r_max                   =   3.9325552406288E-04
(PID.TID 0000.0001) %MON vort_a_mean                  =   8.2147591037595E-05
(PID.TID 0000.0001) %MON vort_a_sd                    =   9.7067272833649E-06
(PID.TID 0000.0001) %MON vort_p_mean                  =   8.4848811292811E-05
(PID.TID 0000.0001) %MON vort_p_sd                    =   3.5001413477454E-05
(PID.TID 0000.0001) %MON surfExpan_theta_mean         =  -7.8613402952633E-05
(PID.TID 0000.0001) %MON surfExpan_salt_mean          =  -2.2742440872672E-04
(PID.TID 0000.0001) // =======================================================
(PID.TID 0000.0001) // End MONITOR dynamic field statistics
(PID.TID 0000.0001) // =======================================================
(PID.TID 0000.0001) // =======================================================
(PID.TID 0000.0001) // Begin OBCS MONITOR field statistics
(PID.TID 0000.0001) // =======================================================
(PID.TID 0000.0001) %MON obc_E_uVel_max               =   2.1254976611064E-01
(PID.TID 0000.0001) %MON obc_E_uVel_min               =   2.7339415255866E-03
(PID.TID 0000.0001) %MON obc_E_uVel_mean              =   1.0310260283846E-01
(PID.TID 0000.0001) %MON obc_E_uVel_sd                =   4.8530169884380E-02
(PID.TID 0000.0001) %MON obc_E_uVel_Int               =   9.8513707678545E+05
(PID.TID 0000.0001) %MON obc_N_vVel_max               =   7.4411089916576E-02
(PID.TID 0000.0001) %MON obc_N_vVel_min               =  -6.0418405542854E-01
(PID.TID 0000.0001) %MON obc_N_vVel_mean              =  -6.6995493466733E-03
(PID.TID 0000.0001) %MON obc_N_vVel_sd                =   1.6778548997271E-02
(PID.TID 0000.0001) %MON obc_N_vVel_Int               =  -9.5904614759463E+07
(PID.TID 0000.0001) %MON obc_S_vVel_max               =   6.4438631515181E-01
(PID.TID 0000.0001) %MON obc_S_vVel_min               =  -1.0710048809849E-01
(PID.TID 0000.0001) %MON obc_S_vVel_mean              =  -5.5456339053997E-03
(PID.TID 0000.0001) %MON obc_S_vVel_sd                =   2.0040704252887E-02
(PID.TID 0000.0001) %MON obc_S_vVel_Int               =  -1.6882517660484E+08
(PID.TID 0000.0001) %MON obc_E_theta_max              =   1.7031576156616E+01
(PID.TID 0000.0001) %MON obc_E_theta_min              =   1.2988679885864E+01
(PID.TID 0000.0001) %MON obc_E_theta_mean             =   1.5361316191092E+01
(PID.TID 0000.0001) %MON obc_E_theta_sd               =   1.5938527426439E+00
(PID.TID 0000.0001) %MON obc_N_theta_max              =   1.6146056072053E+01
(PID.TID 0000.0001) %MON obc_N_theta_min              =   1.6876260315423E+00
(PID.TID 0000.0001) %MON obc_N_theta_mean             =   5.2225913290784E+00
(PID.TID 0000.0001) %MON obc_N_theta_sd               =   3.6303928117735E+00
(PID.TID 0000.0001) %MON obc_S_theta_max              =   2.5392463172235E+01
(PID.TID 0000.0001) %MON obc_S_theta_min              =   1.5161808881699E+00
(PID.TID 0000.0001) %MON obc_S_theta_mean             =   5.4082455444269E+00
(PID.TID 0000.0001) %MON obc_S_theta_sd               =   5.1183236729006E+00
(PID.TID 0000.0001) %MON obc_E_salt_max               =   3.8136505126953E+01
(PID.TID 0000.0001) %MON obc_E_salt_min               =   3.5754806518555E+01
(PID.TID 0000.0001) %MON obc_E_salt_mean              =   3.6401586390596E+01
(PID.TID 0000.0001) %MON obc_E_salt_sd                =   4.3532669310507E-01
(PID.TID 0000.0001) %MON obc_N_salt_max               =   3.6395887207164E+01
(PID.TID 0000.0001) %MON obc_N_salt_min               =   3.0617602503988E+01
(PID.TID 0000.0001) %MON obc_N_salt_mean              =   3.5063772297065E+01
(PID.TID 0000.0001) %MON obc_N_salt_sd                =   3.9119937975099E-01
(PID.TID 0000.0001) %MON obc_S_salt_max               =   3.7332448892596E+01
(PID.TID 0000.0001) %MON obc_S_salt_min               =   3.4852181414831E+01
(PID.TID 0000.0001) %MON obc_S_salt_mean              =   3.5186251023787E+01
(PID.TID 0000.0001) %MON obc_S_salt_sd                =   5.1365392754795E-01
(PID.TID 0000.0001) // =======================================================
(PID.TID 0000.0001) // End OBCS MONITOR field statistics
(PID.TID 0000.0001) // =======================================================
(PID.TID 0000.0001)  EXF_INTERP_READ: opening file: era5/ERA5_rain_2008
(PID.TID 0000.0001)  EXF_INTERP_READ: opening file: era5/ERA5_dsw_2008
(PID.TID 0000.0001)  EXF_INTERP_READ: opening file: era5/ERA5_dlw_2008
(PID.TID 0000.0001) // =======================================================
(PID.TID 0000.0001) // Begin MONITOR EXF statistics
(PID.TID 0000.0001) // =======================================================
(PID.TID 0000.0001) %MON exf_tsnumber                 =                     8
(PID.TID 0000.0001) %MON exf_time_sec                 =   1.9200000000000E+03
(PID.TID 0000.0001) %MON exf_ustress_max              =   7.8811195028666E-01
(PID.TID 0000.0001) %MON exf_ustress_min              =  -3.9876522920568E-01
(PID.TID 0000.0001) %MON exf_ustress_mean             =   6.3337640603605E-02
(PID.TID 0000.0001) %MON exf_ustress_sd               =   1.5324331035439E-01
(PID.TID 0000.0001) %MON exf_ustress_del2             =   3.0831923020177E-07
(PID.TID 0000.0001) %MON exf_vstress_max              =   4.1209143724225E-01
(PID.TID 0000.0001) %MON exf_vstress_min              =  -5.6131805313165E-01
(PID.TID 0000.0001) %MON exf_vstress_mean             =   1.0487968714177E-02
(PID.TID 0000.0001) %MON exf_vstress_sd               =   1.0069071799546E-01
(PID.TID 0000.0001) %MON exf_vstress_del2             =   2.5537024814439E-07
(PID.TID 0000.0001) %MON exf_hflux_max                =   6.8468357670211E+02
(PID.TID 0000.0001) %MON exf_hflux_min                =  -3.0739092025526E+02
(PID.TID 0000.0001) %MON exf_hflux_mean               =   2.0049837470214E+02
(PID.TID 0000.0001) %MON exf_hflux_sd                 =   1.2109972765820E+02
(PID.TID 0000.0001) %MON exf_hflux_del2               =   9.2153333946437E-02
(PID.TID 0000.0001) %MON exf_sflux_max                =   1.6883374096850E-07
(PID.TID 0000.0001) %MON exf_sflux_min                =  -1.7147035960878E-06
(PID.TID 0000.0001) %MON exf_sflux_mean               =   7.6472237323553E-09
(PID.TID 0000.0001) %MON exf_sflux_sd                 =   1.3406269504163E-07
(PID.TID 0000.0001) %MON exf_sflux_del2               =   5.3859607003857E-11
(PID.TID 0000.0001) %MON exf_uwind_max                =   1.9158567797251E+01
(PID.TID 0000.0001) %MON exf_uwind_min                =  -1.4879234628490E+01
(PID.TID 0000.0001) %MON exf_uwind_mean               =   2.5082347680476E+00
(PID.TID 0000.0001) %MON exf_uwind_sd                 =   6.6563983667746E+00
(PID.TID 0000.0001) %MON exf_uwind_del2               =   2.8395329810540E-03
(PID.TID 0000.0001) %MON exf_vwind_max                =   1.4388703693952E+01
(PID.TID 0000.0001) %MON exf_vwind_min                =  -1.2763383389316E+01
(PID.TID 0000.0001) %MON exf_vwind_mean               =   8.5088113758037E-01
(PID.TID 0000.0001) %MON exf_vwind_sd                 =   5.1788085342117E+00
(PID.TID 0000.0001) %MON exf_vwind_del2               =   2.0866341898196E-03
(PID.TID 0000.0001) %MON exf_wspeed_max               =   2.0226658200333E+01
(PID.TID 0000.0001) %MON exf_wspeed_min               =   3.9448883140146E-03
(PID.TID 0000.0001) %MON exf_wspeed_mean              =   7.7095963174621E+00
(PID.TID 0000.0001) %MON exf_wspeed_sd                =   4.3249349168434E+00
(PID.TID 0000.0001) %MON exf_wspeed_del2              =   3.5234945653788E-03
(PID.TID 0000.0001) %MON exf_atemp_max                =   2.9816024585792E+02
(PID.TID 0000.0001) %MON exf_atemp_min                =   2.7434694900651E+02
(PID.TID 0000.0001) %MON exf_atemp_mean               =   2.9067733789698E+02
(PID.TID 0000.0001) %MON exf_atemp_sd                 =   3.9439167542520E+00
(PID.TID 0000.0001) %MON exf_atemp_del2               =   6.8399941456928E-03
(PID.TID 0000.0001) %MON exf_aqh_max                  =   1.6766585126340E-02
(PID.TID 0000.0001) %MON exf_aqh_min                  =   2.7217053503686E-03
(PID.TID 0000.0001) %MON exf_aqh_mean                 =   9.4193208043204E-03
(PID.TID 0000.0001) %MON exf_aqh_sd                   =   2.8735883769719E-03
(PID.TID 0000.0001) %MON exf_aqh_del2                 =   3.7494083359714E-06
(PID.TID 0000.0001) %MON exf_lwflux_max               =   1.6519283495706E+02
(PID.TID 0000.0001) %MON exf_lwflux_min               =  -1.1055490294618E+01
(PID.TID 0000.0001) %MON exf_lwflux_mean              =   6.0758445714005E+01
(PID.TID 0000.0001) %MON exf_lwflux_sd                =   2.6876404644638E+01
(PID.TID 0000.0001) %MON exf_lwflux_del2              =   2.5565931911205E-02
(PID.TID 0000.0001) %MON exf_evap_max                 =   1.9108241481580E-07
(PID.TID 0000.0001) %MON exf_evap_min                 =  -1.0055318086034E-07
(PID.TID 0000.0001) %MON exf_evap_mean                =   4.9594042475679E-08
(PID.TID 0000.0001) %MON exf_evap_sd                  =   3.8645397280226E-08
(PID.TID 0000.0001) %MON exf_evap_del2                =   2.4852257721070E-11
(PID.TID 0000.0001) %MON exf_precip_max               =   1.8946560964359E-06
(PID.TID 0000.0001) %MON exf_precip_min               =   0.0000000000000E+00
(PID.TID 0000.0001) %MON exf_precip_mean              =   4.0358458531359E-08
(PID.TID 0000.0001) %MON exf_precip_sd                =   1.3918077213628E-07
(PID.TID 0000.0001) %MON exf_precip_del2              =   5.8639393466228E-11
(PID.TID 0000.0001) %MON exf_swflux_max               =   0.0000000000000E+00
(PID.TID 0000.0001) %MON exf_swflux_min               =   0.0000000000000E+00
(PID.TID 0000.0001) %MON exf_swflux_mean              =   0.0000000000000E+00
(PID.TID 0000.0001) %MON exf_swflux_sd                =   0.0000000000000E+00
(PID.TID 0000.0001) %MON exf_swflux_del2              =   0.0000000000000E+00
(PID.TID 0000.0001) %MON exf_swdown_max               =   0.0000000000000E+00
(PID.TID 0000.0001) %MON exf_swdown_min               =   0.0000000000000E+00
(PID.TID 0000.0001) %MON exf_swdown_mean              =   0.0000000000000E+00
(PID.TID 0000.0001) %MON exf_swdown_sd                =   0.0000000000000E+00
(PID.TID 0000.0001) %MON exf_swdown_del2              =   0.0000000000000E+00
(PID.TID 0000.0001) %MON exf_lwdown_max               =   4.1825042980031E+02
(PID.TID 0000.0001) %MON exf_lwdown_min               =   2.2314382656222E+02
(PID.TID 0000.0001) %MON exf_lwdown_mean              =   3.4962288872114E+02
(PID.TID 0000.0001) %MON exf_lwdown_sd                =   3.1990342176658E+01
(PID.TID 0000.0001) %MON exf_lwdown_del2              =   1.3542122135948E-01
(PID.TID 0000.0001) %MON exf_apressure_max            =   1.0279973710513E+05
(PID.TID 0000.0001) %MON exf_apressure_min            =   1.0000974426508E+05
(PID.TID 0000.0001) %MON exf_apressure_mean           =   1.0216528687035E+05
(PID.TID 0000.0001) %MON exf_apressure_sd             =   4.9888938788859E+02
(PID.TID 0000.0001) %MON exf_apressure_del2           =   3.9520459248532E+01
(PID.TID 0000.0001) %MON exf_runoff_max               =   4.4374791284855E-08
(PID.TID 0000.0001) %MON exf_runoff_min               =   0.0000000000000E+00
(PID.TID 0000.0001) %MON exf_runoff_mean              =   1.5883602119650E-09
(PID.TID 0000.0001) %MON exf_runoff_sd                =   5.3902197283252E-09
(PID.TID 0000.0001) %MON exf_runoff_del2              =   2.2191549266395E-12
(PID.TID 0000.0001) // =======================================================
(PID.TID 0000.0001) // End MONITOR EXF statistics
(PID.TID 0000.0001) // =======================================================
 cg2d: Sum(rhs),rhsMax =   6.15303619209317E+02  3.68564513566724E-02
(PID.TID 0000.0001)      cg2d_init_res =   6.21918382539117E-01
(PID.TID 0000.0001)      cg2d_iters(min,last) =      -1     309
(PID.TID 0000.0001)      cg2d_last_res =   6.78202387659715E-12
(PID.TID 0000.0001) // =======================================================
(PID.TID 0000.0001) // Begin MONITOR dynamic field statistics
(PID.TID 0000.0001) // =======================================================
(PID.TID 0000.0001) %MON time_tsnumber                =                     9
(PID.TID 0000.0001) %MON time_secondsf                =   2.1600000000000E+03
(PID.TID 0000.0001) %MON dynstat_eta_max              =   1.0543784985082E+00
(PID.TID 0000.0001) %MON dynstat_eta_min              =  -6.1355594365581E-01
(PID.TID 0000.0001) %MON dynstat_eta_mean             =  -2.0925270966337E-02
(PID.TID 0000.0001) %MON dynstat_eta_sd               =   1.3963649674733E-01
(PID.TID 0000.0001) %MON dynstat_eta_del2             =   1.2971022950333E-06
(PID.TID 0000.0001) %MON dynstat_uvel_max             =   7.6948731117821E-01
(PID.TID 0000.0001) %MON dynstat_uvel_min             =  -4.2804514520902E-01
(PID.TID 0000.0001) %MON dynstat_uvel_mean            =  -1.5830979171533E-03
(PID.TID 0000.0001) %MON dynstat_uvel_sd              =   1.7220052095494E-02
(PID.TID 0000.0001) %MON dynstat_uvel_del2            =   1.8090724549347E-07
(PID.TID 0000.0001) %MON dynstat_vvel_max             =   8.3544678592071E-01
(PID.TID 0000.0001) %MON dynstat_vvel_min             =  -6.3818504504806E-01
(PID.TID 0000.0001) %MON dynstat_vvel_mean            =  -5.2687563800804E-03
(PID.TID 0000.0001) %MON dynstat_vvel_sd              =   1.6325429709469E-02
(PID.TID 0000.0001) %MON dynstat_vvel_del2            =   1.4874712744541E-07
(PID.TID 0000.0001) %MON dynstat_wvel_max             =   6.4000532530831E-03
(PID.TID 0000.0001) %MON dynstat_wvel_min             =  -5.6964727742121E-03
(PID.TID 0000.0001) %MON dynstat_wvel_mean            =  -4.7573560477049E-06
(PID.TID 0000.0001) %MON dynstat_wvel_sd              =   1.1737046080317E-04
(PID.TID 0000.0001) %MON dynstat_wvel_del2            =   1.2761926881728E-08
(PID.TID 0000.0001) %MON dynstat_theta_max            =   2.5559737803880E+01
(PID.TID 0000.0001) %MON dynstat_theta_min            =   1.4441539397989E+00
(PID.TID 0000.0001) %MON dynstat_theta_mean           =   5.5933972074789E+00
(PID.TID 0000.0001) %MON dynstat_theta_sd             =   4.7973078339725E+00
(PID.TID 0000.0001) %MON dynstat_theta_del2           =   1.5183805488323E-06
(PID.TID 0000.0001) %MON dynstat_salt_max             =   3.8093939234490E+01
(PID.TID 0000.0001) %MON dynstat_salt_min             =   3.0533160670348E+01
(PID.TID 0000.0001) %MON dynstat_salt_mean            =   3.5189816539274E+01
(PID.TID 0000.0001) %MON dynstat_salt_sd              =   4.6942026167087E-01
(PID.TID 0000.0001) %MON dynstat_salt_del2            =   2.8902646035824E-07
(PID.TID 0000.0001) %MON forcing_qnet_max             =   6.8947479905554E+02
(PID.TID 0000.0001) %MON forcing_qnet_min             =  -3.1223087210629E+02
(PID.TID 0000.0001) %MON forcing_qnet_mean            =   2.0168493310666E+02
(PID.TID 0000.0001) %MON forcing_qnet_sd              =   1.2236606234031E+02
(PID.TID 0000.0001) %MON forcing_qnet_del2            =   9.7411006388139E-04
(PID.TID 0000.0001) %MON forcing_qsw_max              =   0.0000000000000E+00
(PID.TID 0000.0001) %MON forcing_qsw_min              =   0.0000000000000E+00
(PID.TID 0000.0001) %MON forcing_qsw_mean             =   0.0000000000000E+00
(PID.TID 0000.0001) %MON forcing_qsw_sd               =   0.0000000000000E+00
(PID.TID 0000.0001) %MON forcing_qsw_del2             =   0.0000000000000E+00
(PID.TID 0000.0001) %MON forcing_empmr_max            =   1.6883374096850E-04
(PID.TID 0000.0001) %MON forcing_empmr_min            =  -1.7147035960878E-03
(PID.TID 0000.0001) %MON forcing_empmr_mean           =   7.6472237323553E-06
(PID.TID 0000.0001) %MON forcing_empmr_sd             =   1.3406269504163E-04
(PID.TID 0000.0001) %MON forcing_empmr_del2           =   3.3484622229108E-09
(PID.TID 0000.0001) %MON forcing_fu_max               =   7.8804692215294E-01
(PID.TID 0000.0001) %MON forcing_fu_min               =  -3.9867953950813E-01
(PID.TID 0000.0001) %MON forcing_fu_mean              =   6.3395182970505E-02
(PID.TID 0000.0001) %MON forcing_fu_sd                =   1.5330017771104E-01
(PID.TID 0000.0001) %MON forcing_fu_del2              =   2.8902105546624E-07
(PID.TID 0000.0001) %MON forcing_fv_max               =   4.1208456119595E-01
(PID.TID 0000.0001) %MON forcing_fv_min               =  -5.6492754297766E-01
(PID.TID 0000.0001) %MON forcing_fv_mean              =   1.0470342759805E-02
(PID.TID 0000.0001) %MON forcing_fv_sd                =   1.0082037122115E-01
(PID.TID 0000.0001) %MON forcing_fv_del2              =   2.2995939080175E-07
(PID.TID 0000.0001) %MON trAdv_CFL_u_max              =   5.1859633295999E-02
(PID.TID 0000.0001) %MON trAdv_CFL_v_max              =   5.2945918278725E-02
(PID.TID 0000.0001) %MON trAdv_CFL_w_max              =   2.7331157976111E-01
(PID.TID 0000.0001) %MON advcfl_uvel_max              =   5.1859632773483E-02
(PID.TID 0000.0001) %MON advcfl_vvel_max              =   5.2959956721882E-02
(PID.TID 0000.0001) %MON advcfl_wvel_max              =   2.7331157976111E-01
(PID.TID 0000.0001) %MON advcfl_W_hf_max              =   2.7331157976111E-01
(PID.TID 0000.0001) %MON pe_b_mean                    =  -4.9161413480516E-04
(PID.TID 0000.0001) %MON ke_max                       =   4.4306142572675E-01
(PID.TID 0000.0001) %MON ke_mean                      =   2.9435208907957E-04
(PID.TID 0000.0001) %MON ke_vol                       =   4.5818599895265E+16
(PID.TID 0000.0001) %MON vort_r_min                   =  -3.1583855412311E-04
(PID.TID 0000.0001) %MON vort_r_max                   =   3.9321415665736E-04
(PID.TID 0000.0001) %MON vort_a_mean                  =   8.2147591264405E-05
(PID.TID 0000.0001) %MON vort_a_sd                    =   9.7071682692965E-06
(PID.TID 0000.0001) %MON vort_p_mean                  =   8.4848811527080E-05
(PID.TID 0000.0001) %MON vort_p_sd                    =   3.5002099422649E-05
(PID.TID 0000.0001) %MON surfExpan_theta_mean         =  -5.1766236409870E-05
(PID.TID 0000.0001) %MON surfExpan_salt_mean          =  -1.8681923567084E-04
(PID.TID 0000.0001) // =======================================================
(PID.TID 0000.0001) // End MONITOR dynamic field statistics
(PID.TID 0000.0001) // =======================================================
(PID.TID 0000.0001) // =======================================================
(PID.TID 0000.0001) // Begin OBCS MONITOR field statistics
(PID.TID 0000.0001) // =======================================================
(PID.TID 0000.0001) %MON obc_E_uVel_max               =   2.0141156405414E-01
(PID.TID 0000.0001) %MON obc_E_uVel_min               =  -2.8627954673360E-03
(PID.TID 0000.0001) %MON obc_E_uVel_mean              =   9.8088177136490E-02
(PID.TID 0000.0001) %MON obc_E_uVel_sd                =   4.7497221507135E-02
(PID.TID 0000.0001) %MON obc_E_uVel_Int               =   9.3722464255195E+05
(PID.TID 0000.0001) %MON obc_N_vVel_max               =   7.4328091246864E-02
(PID.TID 0000.0001) %MON obc_N_vVel_min               =  -6.0333248927169E-01
(PID.TID 0000.0001) %MON obc_N_vVel_mean              =  -6.7938895718825E-03
(PID.TID 0000.0001) %MON obc_N_vVel_sd                =   1.6807703505032E-02
(PID.TID 0000.0001) %MON obc_N_vVel_Int               =  -9.7255103051560E+07
(PID.TID 0000.0001) %MON obc_S_vVel_max               =   6.4521313859504E-01
(PID.TID 0000.0001) %MON obc_S_vVel_min               =  -1.0698586880076E-01
(PID.TID 0000.0001) %MON obc_S_vVel_mean              =  -5.1905598624442E-03
(PID.TID 0000.0001) %MON obc_S_vVel_sd                =   2.0021459849929E-02
(PID.TID 0000.0001) %MON obc_S_vVel_Int               =  -1.5801569313868E+08
(PID.TID 0000.0001) %MON obc_E_theta_max              =   1.7031576156616E+01
(PID.TID 0000.0001) %MON obc_E_theta_min              =   1.2988679885864E+01
(PID.TID 0000.0001) %MON obc_E_theta_mean             =   1.5361316191092E+01
(PID.TID 0000.0001) %MON obc_E_theta_sd               =   1.5938527426439E+00
(PID.TID 0000.0001) %MON obc_N_theta_max              =   1.6146061663461E+01
(PID.TID 0000.0001) %MON obc_N_theta_min              =   1.6875573573416E+00
(PID.TID 0000.0001) %MON obc_N_theta_mean             =   5.2225894027897E+00
(PID.TID 0000.0001) %MON obc_N_theta_sd               =   3.6303890269961E+00
(PID.TID 0000.0001) %MON obc_S_theta_max              =   2.5392450895055E+01
(PID.TID 0000.0001) %MON obc_S_theta_min              =   1.5161808664549E+00
(PID.TID 0000.0001) %MON obc_S_theta_mean             =   5.4082446232790E+00
(PID.TID 0000.0001) %MON obc_S_theta_sd               =   5.1183204775421E+00
(PID.TID 0000.0001) %MON obc_E_salt_max               =   3.8136505126953E+01
(PID.TID 0000.0001) %MON obc_E_salt_min               =   3.5754806518555E+01
(PID.TID 0000.0001) %MON obc_E_salt_mean              =   3.6401586390596E+01
(PID.TID 0000.0001) %MON obc_E_salt_sd                =   4.3532669310507E-01
(PID.TID 0000.0001) %MON obc_N_salt_max               =   3.6395888550619E+01
(PID.TID 0000.0001) %MON obc_N_salt_min               =   3.0617619067590E+01
(PID.TID 0000.0001) %MON obc_N_salt_mean              =   3.5063772367417E+01
(PID.TID 0000.0001) %MON obc_N_salt_sd                =   3.9119900781782E-01
(PID.TID 0000.0001) %MON obc_S_salt_max               =   3.7332439513471E+01
(PID.TID 0000.0001) %MON obc_S_salt_min               =   3.4852181413090E+01
(PID.TID 0000.0001) %MON obc_S_salt_mean              =   3.5186251064283E+01
(PID.TID 0000.0001) %MON obc_S_salt_sd                =   5.1365401365665E-01
(PID.TID 0000.0001) // =======================================================
(PID.TID 0000.0001) // End OBCS MONITOR field statistics
(PID.TID 0000.0001) // =======================================================
(PID.TID 0000.0001) // =======================================================
(PID.TID 0000.0001) // Begin MONITOR EXF statistics
(PID.TID 0000.0001) // =======================================================
(PID.TID 0000.0001) %MON exf_tsnumber                 =                     9
(PID.TID 0000.0001) %MON exf_time_sec                 =   2.1600000000000E+03
(PID.TID 0000.0001) %MON exf_ustress_max              =   7.9821910854239E-01
(PID.TID 0000.0001) %MON exf_ustress_min              =  -3.9625462711293E-01
(PID.TID 0000.0001) %MON exf_ustress_mean             =   6.3453593232958E-02
(PID.TID 0000.0001) %MON exf_ustress_sd               =   1.5329563730485E-01
(PID.TID 0000.0001) %MON exf_ustress_del2             =   3.1466245577105E-07
(PID.TID 0000.0001) %MON exf_vstress_max              =   4.1276269609231E-01
(PID.TID 0000.0001) %MON exf_vstress_min              =  -5.6212545639806E-01
(PID.TID 0000.0001) %MON exf_vstress_mean             =   1.0540327386881E-02
(PID.TID 0000.0001) %MON exf_vstress_sd               =   1.0075814150661E-01
(PID.TID 0000.0001) %MON exf_vstress_del2             =   2.6146975702357E-07
(PID.TID 0000.0001) %MON exf_hflux_max                =   6.8157862381042E+02
(PID.TID 0000.0001) %MON exf_hflux_min                =  -3.0934923767284E+02
(PID.TID 0000.0001) %MON exf_hflux_mean               =   2.0053553193379E+02
(PID.TID 0000.0001) %MON exf_hflux_sd                 =   1.2106787268265E+02
(PID.TID 0000.0001) %MON exf_hflux_del2               =   9.2165590925458E-02
(PID.TID 0000.0001) %MON exf_sflux_max                =   1.6825879104116E-07
(PID.TID 0000.0001) %MON exf_sflux_min                =  -1.7335485075555E-06
(PID.TID 0000.0001) %MON exf_sflux_mean               =   7.4139876370462E-09
(PID.TID 0000.0001) %MON exf_sflux_sd                 =   1.3319729926888E-07
(PID.TID 0000.0001) %MON exf_sflux_del2               =   5.3367157987443E-11
(PID.TID 0000.0001) %MON exf_uwind_max                =   1.9253197024963E+01
(PID.TID 0000.0001) %MON exf_uwind_min                =  -1.4852849351367E+01
(PID.TID 0000.0001) %MON exf_uwind_mean               =   2.5094866944541E+00
(PID.TID 0000.0001) %MON exf_uwind_sd                 =   6.6563117111563E+00
(PID.TID 0000.0001) %MON exf_uwind_del2               =   2.8396464511555E-03
(PID.TID 0000.0001) %MON exf_vwind_max                =   1.4413603684787E+01
(PID.TID 0000.0001) %MON exf_vwind_min                =  -1.2770295475540E+01
(PID.TID 0000.0001) %MON exf_vwind_mean               =   8.5257574112096E-01
(PID.TID 0000.0001) %MON exf_vwind_sd                 =   5.1779302615784E+00
(PID.TID 0000.0001) %MON exf_vwind_del2               =   2.0867058530748E-03
(PID.TID 0000.0001) %MON exf_wspeed_max               =   2.0205281529308E+01
(PID.TID 0000.0001) %MON exf_wspeed_min               =   1.2128998549607E-02
(PID.TID 0000.0001) %MON exf_wspeed_mean              =   7.7084876324495E+00
(PID.TID 0000.0001) %MON exf_wspeed_sd                =   4.3267857208566E+00
(PID.TID 0000.0001) %MON exf_wspeed_del2              =   3.5236258106187E-03
(PID.TID 0000.0001) %MON exf_atemp_max                =   2.9815804856951E+02
(PID.TID 0000.0001) %MON exf_atemp_min                =   2.7432134779787E+02
(PID.TID 0000.0001) %MON exf_atemp_mean               =   2.9067421700946E+02
(PID.TID 0000.0001) %MON exf_atemp_sd                 =   3.9443776611301E+00
(PID.TID 0000.0001) %MON exf_atemp_del2               =   6.8388107490502E-03
(PID.TID 0000.0001) %MON exf_aqh_max                  =   1.6759598825467E-02
(PID.TID 0000.0001) %MON exf_aqh_min                  =   2.7194106526046E-03
(PID.TID 0000.0001) %MON exf_aqh_mean                 =   9.4181324533667E-03
(PID.TID 0000.0001) %MON exf_aqh_sd                   =   2.8742912712979E-03
(PID.TID 0000.0001) %MON exf_aqh_del2                 =   3.7489619036627E-06
(PID.TID 0000.0001) %MON exf_lwflux_max               =   1.6550324273583E+02
(PID.TID 0000.0001) %MON exf_lwflux_min               =  -9.8929953875470E+00
(PID.TID 0000.0001) %MON exf_lwflux_mean              =   6.0741606351703E+01
(PID.TID 0000.0001) %MON exf_lwflux_sd                =   2.6778718770732E+01
(PID.TID 0000.0001) %MON exf_lwflux_del2              =   2.5541418182392E-02
(PID.TID 0000.0001) %MON exf_evap_max                 =   1.9060836400211E-07
(PID.TID 0000.0001) %MON exf_evap_min                 =  -1.0098302274668E-07
(PID.TID 0000.0001) %MON exf_evap_mean                =   4.9603944530634E-08
(PID.TID 0000.0001) %MON exf_evap_sd                  =   3.8627497911813E-08
(PID.TID 0000.0001) %MON exf_evap_del2                =   2.4853188954333E-11
(PID.TID 0000.0001) %MON exf_precip_max               =   1.9141066233964E-06
(PID.TID 0000.0001) %MON exf_precip_min               =   0.0000000000000E+00
(PID.TID 0000.0001) %MON exf_precip_mean              =   4.0601596681623E-08
(PID.TID 0000.0001) %MON exf_precip_sd                =   1.3843183942917E-07
(PID.TID 0000.0001) %MON exf_precip_del2              =   5.8247101068395E-11
(PID.TID 0000.0001) %MON exf_swflux_max               =   0.0000000000000E+00
(PID.TID 0000.0001) %MON exf_swflux_min               =   0.0000000000000E+00
(PID.TID 0000.0001) %MON exf_swflux_mean              =   0.0000000000000E+00
(PID.TID 0000.0001) %MON exf_swflux_sd                =   0.0000000000000E+00
(PID.TID 0000.0001) %MON exf_swflux_del2              =   0.0000000000000E+00
(PID.TID 0000.0001) %MON exf_swdown_max               =   0.0000000000000E+00
(PID.TID 0000.0001) %MON exf_swdown_min               =   0.0000000000000E+00
(PID.TID 0000.0001) %MON exf_swdown_mean              =   0.0000000000000E+00
(PID.TID 0000.0001) %MON exf_swdown_sd                =   0.0000000000000E+00
(PID.TID 0000.0001) %MON exf_swdown_del2              =   0.0000000000000E+00
(PID.TID 0000.0001) %MON exf_lwdown_max               =   4.1828155240958E+02
(PID.TID 0000.0001) %MON exf_lwdown_min               =   2.2358340796167E+02
(PID.TID 0000.0001) %MON exf_lwdown_mean              =   3.4963739392962E+02
(PID.TID 0000.0001) %MON exf_lwdown_sd                =   3.1864495959542E+01
(PID.TID 0000.0001) %MON exf_lwdown_del2              =   1.3542338692063E-01
(PID.TID 0000.0001) %MON exf_apressure_max            =   1.0280269188821E+05
(PID.TID 0000.0001) %MON exf_apressure_min            =   1.0001241170265E+05
(PID.TID 0000.0001) %MON exf_apressure_mean           =   1.0216606424130E+05
(PID.TID 0000.0001) %MON exf_apressure_sd             =   4.9880603289393E+02
(PID.TID 0000.0001) %MON exf_apressure_del2           =   3.9520766762539E+01
(PID.TID 0000.0001) %MON exf_runoff_max               =   4.4374791284855E-08
(PID.TID 0000.0001) %MON exf_runoff_min               =   0.0000000000000E+00
(PID.TID 0000.0001) %MON exf_runoff_mean              =   1.5883602119650E-09
(PID.TID 0000.0001) %MON exf_runoff_sd                =   5.3902197283252E-09
(PID.TID 0000.0001) %MON exf_runoff_del2              =   2.2191549266395E-12
(PID.TID 0000.0001) // =======================================================
(PID.TID 0000.0001) // End MONITOR EXF statistics
(PID.TID 0000.0001) // =======================================================
 cg2d: Sum(rhs),rhsMax =   6.46159495740024E+02  4.09758461287209E-02
(PID.TID 0000.0001)      cg2d_init_res =   5.94401784299320E-01
(PID.TID 0000.0001)      cg2d_iters(min,last) =      -1     308
(PID.TID 0000.0001)      cg2d_last_res =   6.98816891484640E-12
(PID.TID 0000.0001) // =======================================================
(PID.TID 0000.0001) // Begin MONITOR dynamic field statistics
(PID.TID 0000.0001) // =======================================================
(PID.TID 0000.0001) %MON time_tsnumber                =                    10
(PID.TID 0000.0001) %MON time_secondsf                =   2.4000000000000E+03
(PID.TID 0000.0001) %MON dynstat_eta_max              =   9.8007196747445E-01
(PID.TID 0000.0001) %MON dynstat_eta_min              =  -6.3937254957868E-01
(PID.TID 0000.0001) %MON dynstat_eta_mean             =  -2.1974618893363E-02
(PID.TID 0000.0001) %MON dynstat_eta_sd               =   1.4814955388493E-01
(PID.TID 0000.0001) %MON dynstat_eta_del2             =   1.2697452941843E-06
(PID.TID 0000.0001) %MON dynstat_uvel_max             =   8.5716899647006E-01
(PID.TID 0000.0001) %MON dynstat_uvel_min             =  -3.4319307412283E-01
(PID.TID 0000.0001) %MON dynstat_uvel_mean            =  -1.8385905179038E-03
(PID.TID 0000.0001) %MON dynstat_uvel_sd              =   1.7212636082144E-02
(PID.TID 0000.0001) %MON dynstat_uvel_del2            =   1.8839254124379E-07
(PID.TID 0000.0001) %MON dynstat_vvel_max             =   8.4614935885643E-01
(PID.TID 0000.0001) %MON dynstat_vvel_min             =  -6.4009858576108E-01
(PID.TID 0000.0001) %MON dynstat_vvel_mean            =  -5.6306961372008E-03
(PID.TID 0000.0001) %MON dynstat_vvel_sd              =   1.6373173096721E-02
(PID.TID 0000.0001) %MON dynstat_vvel_del2            =   1.5486263888557E-07
(PID.TID 0000.0001) %MON dynstat_wvel_max             =   6.1922181760305E-03
(PID.TID 0000.0001) %MON dynstat_wvel_min             =  -5.7022340175332E-03
(PID.TID 0000.0001) %MON dynstat_wvel_mean            =  -4.0983973322243E-06
(PID.TID 0000.0001) %MON dynstat_wvel_sd              =   1.2052031861421E-04
(PID.TID 0000.0001) %MON dynstat_wvel_del2            =   1.3051251152742E-08
(PID.TID 0000.0001) %MON dynstat_theta_max            =   2.5561130151642E+01
(PID.TID 0000.0001) %MON dynstat_theta_min            =   1.4441539436751E+00
(PID.TID 0000.0001) %MON dynstat_theta_mean           =   5.5933951307771E+00
(PID.TID 0000.0001) %MON dynstat_theta_sd             =   4.7972980739283E+00
(PID.TID 0000.0001) %MON dynstat_theta_del2           =   1.5241432156649E-06
(PID.TID 0000.0001) %MON dynstat_salt_max             =   3.8093158663350E+01
(PID.TID 0000.0001) %MON dynstat_salt_min             =   3.0533651176864E+01
(PID.TID 0000.0001) %MON dynstat_salt_mean            =   3.5189815981371E+01
(PID.TID 0000.0001) %MON dynstat_salt_sd              =   4.6942194227361E-01
(PID.TID 0000.0001) %MON dynstat_salt_del2            =   2.9400404466353E-07
(PID.TID 0000.0001) %MON forcing_qnet_max             =   6.8592216616161E+02
(PID.TID 0000.0001) %MON forcing_qnet_min             =  -3.1422396707732E+02
(PID.TID 0000.0001) %MON forcing_qnet_mean            =   2.0170628554045E+02
(PID.TID 0000.0001) %MON forcing_qnet_sd              =   1.2231890638998E+02
(PID.TID 0000.0001) %MON forcing_qnet_del2            =   9.7563852410839E-04
(PID.TID 0000.0001) %MON forcing_qsw_max              =   0.0000000000000E+00
(PID.TID 0000.0001) %MON forcing_qsw_min              =   0.0000000000000E+00
(PID.TID 0000.0001) %MON forcing_qsw_mean             =   0.0000000000000E+00
(PID.TID 0000.0001) %MON forcing_qsw_sd               =   0.0000000000000E+00
(PID.TID 0000.0001) %MON forcing_qsw_del2             =   0.0000000000000E+00
(PID.TID 0000.0001) %MON forcing_empmr_max            =   1.6825879104116E-04
(PID.TID 0000.0001) %MON forcing_empmr_min            =  -1.7335485075555E-03
(PID.TID 0000.0001) %MON forcing_empmr_mean           =   7.4139876370462E-06
(PID.TID 0000.0001) %MON forcing_empmr_sd             =   1.3319729926888E-04
(PID.TID 0000.0001) %MON forcing_empmr_del2           =   3.1564957199079E-09
(PID.TID 0000.0001) %MON forcing_fu_max               =   7.9806072093640E-01
(PID.TID 0000.0001) %MON forcing_fu_min               =  -3.9623975677402E-01
(PID.TID 0000.0001) %MON forcing_fu_mean              =   6.3511590139902E-02
(PID.TID 0000.0001) %MON forcing_fu_sd                =   1.5335268126255E-01
(PID.TID 0000.0001) %MON forcing_fu_del2              =   2.9535812985941E-07
(PID.TID 0000.0001) %MON forcing_fv_max               =   4.1254048543062E-01
(PID.TID 0000.0001) %MON forcing_fv_min               =  -5.6594681094984E-01
(PID.TID 0000.0001) %MON forcing_fv_mean              =   1.0523007284890E-02
(PID.TID 0000.0001) %MON forcing_fv_sd                =   1.0088801567047E-01
(PID.TID 0000.0001) %MON forcing_fv_del2              =   2.3608133529835E-07
(PID.TID 0000.0001) %MON trAdv_CFL_u_max              =   5.0947280674322E-02
(PID.TID 0000.0001) %MON trAdv_CFL_v_max              =   5.3636192282379E-02
(PID.TID 0000.0001) %MON trAdv_CFL_w_max              =   2.7370723284159E-01
(PID.TID 0000.0001) %MON advcfl_uvel_max              =   5.0947280160999E-02
(PID.TID 0000.0001) %MON advcfl_vvel_max              =   5.3654934066965E-02
(PID.TID 0000.0001) %MON advcfl_wvel_max              =   2.7370723284159E-01
(PID.TID 0000.0001) %MON advcfl_W_hf_max              =   2.7370723284159E-01
(PID.TID 0000.0001) %MON pe_b_mean                    =  -5.1451253195795E-04
(PID.TID 0000.0001) %MON ke_max                       =   4.5364506044950E-01
(PID.TID 0000.0001) %MON ke_mean                      =   2.9739959530261E-04
(PID.TID 0000.0001) %MON ke_vol                       =   4.5818599895265E+16
(PID.TID 0000.0001) %MON vort_r_min                   =  -3.2061563546126E-04
(PID.TID 0000.0001) %MON vort_r_max                   =   3.9164741692389E-04
(PID.TID 0000.0001) %MON vort_a_mean                  =   8.2147591505904E-05
(PID.TID 0000.0001) %MON vort_a_sd                    =   9.7075328742174E-06
(PID.TID 0000.0001) %MON vort_p_mean                  =   8.4848811776520E-05
(PID.TID 0000.0001) %MON vort_p_sd                    =   3.5002929058771E-05
(PID.TID 0000.0001) %MON surfExpan_theta_mean         =  -2.6863654918800E-05
(PID.TID 0000.0001) %MON surfExpan_salt_mean          =  -1.4671492462808E-04
(PID.TID 0000.0001) // =======================================================
(PID.TID 0000.0001) // End MONITOR dynamic field statistics
(PID.TID 0000.0001) // =======================================================
(PID.TID 0000.0001) // =======================================================
(PID.TID 0000.0001) // Begin OBCS MONITOR field statistics
(PID.TID 0000.0001) // =======================================================
(PID.TID 0000.0001) %MON obc_E_uVel_max               =   1.9005815822770E-01
(PID.TID 0000.0001) %MON obc_E_uVel_min               =  -8.5706428660641E-03
(PID.TID 0000.0001) %MON obc_E_uVel_mean              =   9.2976685087448E-02
(PID.TID 0000.0001) %MON obc_E_uVel_sd                =   4.6472911936430E-02
(PID.TID 0000.0001) %MON obc_E_uVel_Int               =   8.8838474718001E+05
(PID.TID 0000.0001) %MON obc_N_vVel_max               =   7.4250537409111E-02
(PID.TID 0000.0001) %MON obc_N_vVel_min               =  -6.0179653133300E-01
(PID.TID 0000.0001) %MON obc_N_vVel_mean              =  -6.8796454631124E-03
(PID.TID 0000.0001) %MON obc_N_vVel_sd                =   1.6827091864161E-02
(PID.TID 0000.0001) %MON obc_N_vVel_Int               =  -9.8482705877687E+07
(PID.TID 0000.0001) %MON obc_S_vVel_max               =   6.4602073459498E-01
(PID.TID 0000.0001) %MON obc_S_vVel_min               =  -1.0687387280594E-01
(PID.TID 0000.0001) %MON obc_S_vVel_mean              =  -4.8289143623764E-03
(PID.TID 0000.0001) %MON obc_S_vVel_sd                =   2.0001555787474E-02
(PID.TID 0000.0001) %MON obc_S_vVel_Int               =  -1.4700615546296E+08
(PID.TID 0000.0001) %MON obc_E_theta_max              =   1.7031576156616E+01
(PID.TID 0000.0001) %MON obc_E_theta_min              =   1.2988679885864E+01
(PID.TID 0000.0001) %MON obc_E_theta_mean             =   1.5361316191092E+01
(PID.TID 0000.0001) %MON obc_E_theta_sd               =   1.5938527426439E+00
(PID.TID 0000.0001) %MON obc_N_theta_max              =   1.6146067254869E+01
(PID.TID 0000.0001) %MON obc_N_theta_min              =   1.6874886831409E+00
(PID.TID 0000.0001) %MON obc_N_theta_mean             =   5.2225874765010E+00
(PID.TID 0000.0001) %MON obc_N_theta_sd               =   3.6303852422769E+00
(PID.TID 0000.0001) %MON obc_S_theta_max              =   2.5392438617874E+01
(PID.TID 0000.0001) %MON obc_S_theta_min              =   1.5161808447399E+00
(PID.TID 0000.0001) %MON obc_S_theta_mean             =   5.4082437021311E+00
(PID.TID 0000.0001) %MON obc_S_theta_sd               =   5.1183172821966E+00
(PID.TID 0000.0001) %MON obc_E_salt_max               =   3.8136505126953E+01
(PID.TID 0000.0001) %MON obc_E_salt_min               =   3.5754806518555E+01
(PID.TID 0000.0001) %MON obc_E_salt_mean              =   3.6401586390596E+01
(PID.TID 0000.0001) %MON obc_E_salt_sd                =   4.3532669310507E-01
(PID.TID 0000.0001) %MON obc_N_salt_max               =   3.6395889894075E+01
(PID.TID 0000.0001) %MON obc_N_salt_min               =   3.0617635631191E+01
(PID.TID 0000.0001) %MON obc_N_salt_mean              =   3.5063772437769E+01
(PID.TID 0000.0001) %MON obc_N_salt_sd                =   3.9119863590864E-01
(PID.TID 0000.0001) %MON obc_S_salt_max               =   3.7332430134346E+01
(PID.TID 0000.0001) %MON obc_S_salt_min               =   3.4852181411350E+01
(PID.TID 0000.0001) %MON obc_S_salt_mean              =   3.5186251104779E+01
(PID.TID 0000.0001) %MON obc_S_salt_sd                =   5.1365409976985E-01
(PID.TID 0000.0001) // =======================================================
(PID.TID 0000.0001) // End OBCS MONITOR field statistics
(PID.TID 0000.0001) // =======================================================
(PID.TID 0000.0001) // =======================================================
(PID.TID 0000.0001) // Begin MONITOR EXF statistics
(PID.TID 0000.0001) // =======================================================
(PID.TID 0000.0001) %MON exf_tsnumber                 =                    10
(PID.TID 0000.0001) %MON exf_time_sec                 =   2.4000000000000E+03
(PID.TID 0000.0001) %MON exf_ustress_max              =   8.0918924612685E-01
(PID.TID 0000.0001) %MON exf_ustress_min              =  -3.9389114239903E-01
(PID.TID 0000.0001) %MON exf_ustress_mean             =   6.3594971701791E-02
(PID.TID 0000.0001) %MON exf_ustress_sd               =   1.5342134796400E-01
(PID.TID 0000.0001) %MON exf_ustress_del2             =   3.2450136087323E-07
(PID.TID 0000.0001) %MON exf_vstress_max              =   4.1414849457395E-01
(PID.TID 0000.0001) %MON exf_vstress_min              =  -5.6315200192974E-01
(PID.TID 0000.0001) %MON exf_vstress_mean             =   1.0598337501627E-02
(PID.TID 0000.0001) %MON exf_vstress_sd               =   1.0089045051385E-01
(PID.TID 0000.0001) %MON exf_vstress_del2             =   2.7071528295981E-07
(PID.TID 0000.0001) %MON exf_hflux_max                =   6.7861847358610E+02
(PID.TID 0000.0001) %MON exf_hflux_min                =  -3.1143206235372E+02
(PID.TID 0000.0001) %MON exf_hflux_mean               =   2.0059198580713E+02
(PID.TID 0000.0001) %MON exf_hflux_sd                 =   1.2107583147701E+02
(PID.TID 0000.0001) %MON exf_hflux_del2               =   9.2192913030368E-02
(PID.TID 0000.0001) %MON exf_sflux_max                =   1.6769106112777E-07
(PID.TID 0000.0001) %MON exf_sflux_min                =  -1.7523921067844E-06
(PID.TID 0000.0001) %MON exf_sflux_mean               =   7.1872198422401E-09
(PID.TID 0000.0001) %MON exf_sflux_sd                 =   1.3263554043093E-07
(PID.TID 0000.0001) %MON exf_sflux_del2               =   5.3003121740910E-11
(PID.TID 0000.0001) %MON exf_uwind_max                =   1.9357403803211E+01
(PID.TID 0000.0001) %MON exf_uwind_min                =  -1.4826705216339E+01
(PID.TID 0000.0001) %MON exf_uwind_mean               =   2.5107918628492E+00
(PID.TID 0000.0001) %MON exf_uwind_sd                 =   6.6569612804760E+00
(PID.TID 0000.0001) %MON exf_uwind_del2               =   2.8400468525059E-03
(PID.TID 0000.0001) %MON exf_vwind_max                =   1.4451778817919E+01
(PID.TID 0000.0001) %MON exf_vwind_min                =  -1.2781698317454E+01
(PID.TID 0000.0001) %MON exf_vwind_mean               =   8.5425995107088E-01
(PID.TID 0000.0001) %MON exf_vwind_sd                 =   5.1785561855392E+00
(PID.TID 0000.0001) %MON exf_vwind_del2               =   2.0873776397701E-03
(PID.TID 0000.0001) %MON exf_wspeed_max               =   2.0190002146908E+01
(PID.TID 0000.0001) %MON exf_wspeed_min               =   3.5848735969137E-03
(PID.TID 0000.0001) %MON exf_wspeed_mean              =   7.7085162620661E+00
(PID.TID 0000.0001) %MON exf_wspeed_sd                =   4.3295716343026E+00
(PID.TID 0000.0001) %MON exf_wspeed_del2              =   3.5243401138465E-03
(PID.TID 0000.0001) %MON exf_atemp_max                =   2.9815585128109E+02
(PID.TID 0000.0001) %MON exf_atemp_min                =   2.7429574658923E+02
(PID.TID 0000.0001) %MON exf_atemp_mean               =   2.9067109612195E+02
(PID.TID 0000.0001) %MON exf_atemp_sd                 =   3.9449809594340E+00
(PID.TID 0000.0001) %MON exf_atemp_del2               =   6.8376411033314E-03
(PID.TID 0000.0001) %MON exf_aqh_max                  =   1.6752612524593E-02
(PID.TID 0000.0001) %MON exf_aqh_min                  =   2.7171159548406E-03
(PID.TID 0000.0001) %MON exf_aqh_mean                 =   9.4169441024131E-03
(PID.TID 0000.0001) %MON exf_aqh_sd                   =   2.8751666531386E-03
(PID.TID 0000.0001) %MON exf_aqh_del2                 =   3.7485372807857E-06
(PID.TID 0000.0001) %MON exf_lwflux_max               =   1.6581388633091E+02
(PID.TID 0000.0001) %MON exf_lwflux_min               =  -8.8217340272463E+00
(PID.TID 0000.0001) %MON exf_lwflux_mean              =   6.0724956581806E+01
(PID.TID 0000.0001) %MON exf_lwflux_sd                =   2.6699748587577E+01
(PID.TID 0000.0001) %MON exf_lwflux_del2              =   2.5520188191396E-02
(PID.TID 0000.0001) %MON exf_evap_max                 =   1.9084052642124E-07
(PID.TID 0000.0001) %MON exf_evap_min                 =  -1.0143387285711E-07
(PID.TID 0000.0001) %MON exf_evap_mean                =   4.9620314886091E-08
(PID.TID 0000.0001) %MON exf_evap_sd                  =   3.8621269460281E-08
(PID.TID 0000.0001) %MON exf_evap_del2                =   2.4859137573851E-11
(PID.TID 0000.0001) %MON exf_precip_max               =   1.9335571503569E-06
(PID.TID 0000.0001) %MON exf_precip_min               =   0.0000000000000E+00
(PID.TID 0000.0001) %MON exf_precip_mean              =   4.0844734831886E-08
(PID.TID 0000.0001) %MON exf_precip_sd                =   1.3798471040988E-07
(PID.TID 0000.0001) %MON exf_precip_del2              =   5.7977042733636E-11
(PID.TID 0000.0001) %MON exf_swflux_max               =   0.0000000000000E+00
(PID.TID 0000.0001) %MON exf_swflux_min               =   0.0000000000000E+00
(PID.TID 0000.0001) %MON exf_swflux_mean              =   0.0000000000000E+00
(PID.TID 0000.0001) %MON exf_swflux_sd                =   0.0000000000000E+00
(PID.TID 0000.0001) %MON exf_swflux_del2              =   0.0000000000000E+00
(PID.TID 0000.0001) %MON exf_swdown_max               =   0.0000000000000E+00
(PID.TID 0000.0001) %MON exf_swdown_min               =   0.0000000000000E+00
(PID.TID 0000.0001) %MON exf_swdown_mean              =   0.0000000000000E+00
(PID.TID 0000.0001) %MON exf_swdown_sd                =   0.0000000000000E+00
(PID.TID 0000.0001) %MON exf_swdown_del2              =   0.0000000000000E+00
(PID.TID 0000.0001) %MON exf_lwdown_max               =   4.1831267501885E+02
(PID.TID 0000.0001) %MON exf_lwdown_min               =   2.2402298936111E+02
(PID.TID 0000.0001) %MON exf_lwdown_mean              =   3.4965189913811E+02
(PID.TID 0000.0001) %MON exf_lwdown_sd                =   3.1755264786855E+01
(PID.TID 0000.0001) %MON exf_lwdown_del2              =   1.3542620414612E-01
(PID.TID 0000.0001) %MON exf_apressure_max            =   1.0280576881181E+05
(PID.TID 0000.0001) %MON exf_apressure_min            =   1.0001483343524E+05
(PID.TID 0000.0001) %MON exf_apressure_mean           =   1.0216684161225E+05
(PID.TID 0000.0001) %MON exf_apressure_sd             =   4.9876249108098E+02
(PID.TID 0000.0001) %MON exf_apressure_del2           =   3.9521074357957E+01
(PID.TID 0000.0001) %MON exf_runoff_max               =   4.4374791284855E-08
(PID.TID 0000.0001) %MON exf_runoff_min               =   0.0000000000000E+00
(PID.TID 0000.0001) %MON exf_runoff_mean              =   1.5883602119650E-09
(PID.TID 0000.0001) %MON exf_runoff_sd                =   5.3902197283252E-09
(PID.TID 0000.0001) %MON exf_runoff_del2              =   2.2191549266395E-12
(PID.TID 0000.0001) // =======================================================
(PID.TID 0000.0001) // End MONITOR EXF statistics
(PID.TID 0000.0001) // =======================================================
 cg2d: Sum(rhs),rhsMax =   6.69303046790148E+02  4.75802039754885E-02
(PID.TID 0000.0001)      cg2d_init_res =   5.68654410223305E-01
(PID.TID 0000.0001)      cg2d_iters(min,last) =      -1     308
(PID.TID 0000.0001)      cg2d_last_res =   6.51544857876480E-12
(PID.TID 0000.0001) // =======================================================
(PID.TID 0000.0001) // Begin MONITOR dynamic field statistics
(PID.TID 0000.0001) // =======================================================
(PID.TID 0000.0001) %MON time_tsnumber                =                    11
(PID.TID 0000.0001) %MON time_secondsf                =   2.6400000000000E+03
(PID.TID 0000.0001) %MON dynstat_eta_max              =   9.1997859312828E-01
(PID.TID 0000.0001) %MON dynstat_eta_min              =  -6.7435003892368E-01
(PID.TID 0000.0001) %MON dynstat_eta_mean             =  -2.2761685736021E-02
(PID.TID 0000.0001) %MON dynstat_eta_sd               =   1.5561523397968E-01
(PID.TID 0000.0001) %MON dynstat_eta_del2             =   1.2459621641823E-06
(PID.TID 0000.0001) %MON dynstat_uvel_max             =   8.8997597765133E-01
(PID.TID 0000.0001) %MON dynstat_uvel_min             =  -3.2342155968878E-01
(PID.TID 0000.0001) %MON dynstat_uvel_mean            =  -2.1002625162887E-03
(PID.TID 0000.0001) %MON dynstat_uvel_sd              =   1.7200979722892E-02
(PID.TID 0000.0001) %MON dynstat_uvel_del2            =   1.9514209464088E-07
(PID.TID 0000.0001) %MON dynstat_vvel_max             =   8.6277668523638E-01
(PID.TID 0000.0001) %MON dynstat_vvel_min             =  -6.4129662902245E-01
(PID.TID 0000.0001) %MON dynstat_vvel_mean            =  -5.9518984075093E-03
(PID.TID 0000.0001) %MON dynstat_vvel_sd              =   1.6425056763754E-02
(PID.TID 0000.0001) %MON dynstat_vvel_del2            =   1.6047054478961E-07
(PID.TID 0000.0001) %MON dynstat_wvel_max             =   6.4300118537237E-03
(PID.TID 0000.0001) %MON dynstat_wvel_min             =  -5.6040322010595E-03
(PID.TID 0000.0001) %MON dynstat_wvel_mean            =  -3.4345441060700E-06
(PID.TID 0000.0001) %MON dynstat_wvel_sd              =   1.2367490189578E-04
(PID.TID 0000.0001) %MON dynstat_wvel_del2            =   1.3300686638131E-08
(PID.TID 0000.0001) %MON dynstat_theta_max            =   2.5562107264421E+01
(PID.TID 0000.0001) %MON dynstat_theta_min            =   1.4441539475514E+00
(PID.TID 0000.0001) %MON dynstat_theta_mean           =   5.5933920186821E+00
(PID.TID 0000.0001) %MON dynstat_theta_sd             =   4.7972864245477E+00
(PID.TID 0000.0001) %MON dynstat_theta_del2           =   1.5304974680018E-06
(PID.TID 0000.0001) %MON dynstat_salt_max             =   3.8092346941573E+01
(PID.TID 0000.0001) %MON dynstat_salt_min             =   3.0534045015403E+01
(PID.TID 0000.0001) %MON dynstat_salt_mean            =   3.5189815348077E+01
(PID.TID 0000.0001) %MON dynstat_salt_sd              =   4.6942320373207E-01
(PID.TID 0000.0001) %MON dynstat_salt_del2            =   2.9955483933579E-07
(PID.TID 0000.0001) %MON forcing_qnet_max             =   6.8324973226335E+02
(PID.TID 0000.0001) %MON forcing_qnet_min             =  -3.1636013839705E+02
(PID.TID 0000.0001) %MON forcing_qnet_mean            =   2.0174760403784E+02
(PID.TID 0000.0001) %MON forcing_qnet_sd              =   1.2231150614873E+02
(PID.TID 0000.0001) %MON forcing_qnet_del2            =   9.7781598679830E-04
(PID.TID 0000.0001) %MON forcing_qsw_max              =   0.0000000000000E+00
(PID.TID 0000.0001) %MON forcing_qsw_min              =   0.0000000000000E+00
(PID.TID 0000.0001) %MON forcing_qsw_mean             =   0.0000000000000E+00
(PID.TID 0000.0001) %MON forcing_qsw_sd               =   0.0000000000000E+00
(PID.TID 0000.0001) %MON forcing_qsw_del2             =   0.0000000000000E+00
(PID.TID 0000.0001) %MON forcing_empmr_max            =   1.6769106112777E-04
(PID.TID 0000.0001) %MON forcing_empmr_min            =  -1.7523921067844E-03
(PID.TID 0000.0001) %MON forcing_empmr_mean           =   7.1872198422401E-06
(PID.TID 0000.0001) %MON forcing_empmr_sd             =   1.3263554043093E-04
(PID.TID 0000.0001) %MON forcing_empmr_del2           =   2.9861443418577E-09
(PID.TID 0000.0001) %MON forcing_fu_max               =   8.0916379541981E-01
(PID.TID 0000.0001) %MON forcing_fu_min               =  -3.9383173079856E-01
(PID.TID 0000.0001) %MON forcing_fu_mean              =   6.3653441880205E-02
(PID.TID 0000.0001) %MON forcing_fu_sd                =   1.5347855793094E-01
(PID.TID 0000.0001) %MON forcing_fu_del2              =   3.0510845604239E-07
(PID.TID 0000.0001) %MON forcing_fv_max               =   4.1413080654416E-01
(PID.TID 0000.0001) %MON forcing_fv_min               =  -5.6717889858350E-01
(PID.TID 0000.0001) %MON forcing_fv_mean              =   1.0581341476353E-02
(PID.TID 0000.0001) %MON forcing_fv_sd                =   1.0102050616162E-01
(PID.TID 0000.0001) %MON forcing_fv_del2              =   2.4526041725992E-07
(PID.TID 0000.0001) %MON trAdv_CFL_u_max              =   5.1737565657014E-02
(PID.TID 0000.0001) %MON trAdv_CFL_v_max              =   5.4690174614839E-02
(PID.TID 0000.0001) %MON trAdv_CFL_w_max              =   2.6843462481839E-01
(PID.TID 0000.0001) %MON advcfl_uvel_max              =   5.1737564891650E-02
(PID.TID 0000.0001) %MON advcfl_vvel_max              =   5.4709284686378E-02
(PID.TID 0000.0001) %MON advcfl_wvel_max              =   2.6843462481839E-01
(PID.TID 0000.0001) %MON advcfl_W_hf_max              =   2.6843462481839E-01
(PID.TID 0000.0001) %MON pe_b_mean                    =  -5.3117857433136E-04
(PID.TID 0000.0001) %MON ke_max                       =   4.5913423840956E-01
(PID.TID 0000.0001) %MON ke_mean                      =   3.0041059865594E-04
(PID.TID 0000.0001) %MON ke_vol                       =   4.5818599895265E+16
(PID.TID 0000.0001) %MON vort_r_min                   =  -3.2434444659366E-04
(PID.TID 0000.0001) %MON vort_r_max                   =   3.8883546002611E-04
(PID.TID 0000.0001) %MON vort_a_mean                  =   8.2147591761853E-05
(PID.TID 0000.0001) %MON vort_a_sd                    =   9.7078309220867E-06
(PID.TID 0000.0001) %MON vort_p_mean                  =   8.4848812040885E-05
(PID.TID 0000.0001) %MON vort_p_sd                    =   3.5003873884964E-05
(PID.TID 0000.0001) %MON surfExpan_theta_mean         =  -3.3608466040904E-06
(PID.TID 0000.0001) %MON surfExpan_salt_mean          =  -1.0695081642365E-04
(PID.TID 0000.0001) // =======================================================
(PID.TID 0000.0001) // End MONITOR dynamic field statistics
(PID.TID 0000.0001) // =======================================================
(PID.TID 0000.0001) // =======================================================
(PID.TID 0000.0001) // Begin OBCS MONITOR field statistics
(PID.TID 0000.0001) // =======================================================
(PID.TID 0000.0001) %MON obc_E_uVel_max               =   1.7850308859914E-01
(PID.TID 0000.0001) %MON obc_E_uVel_min               =  -1.4382643265332E-02
(PID.TID 0000.0001) %MON obc_E_uVel_mean              =   8.7774342208371E-02
(PID.TID 0000.0001) %MON obc_E_uVel_sd                =   4.5463097953865E-02
(PID.TID 0000.0001) %MON obc_E_uVel_Int               =   8.3867677943491E+05
(PID.TID 0000.0001) %MON obc_N_vVel_max               =   7.4178521434484E-02
(PID.TID 0000.0001) %MON obc_N_vVel_min               =  -5.9957755743827E-01
(PID.TID 0000.0001) %MON obc_N_vVel_mean              =  -6.9566906783681E-03
(PID.TID 0000.0001) %MON obc_N_vVel_sd                =   1.6836593360859E-02
(PID.TID 0000.0001) %MON obc_N_vVel_Int               =  -9.9585614641517E+07
(PID.TID 0000.0001) %MON obc_S_vVel_max               =   6.4680840988697E-01
(PID.TID 0000.0001) %MON obc_S_vVel_min               =  -1.0676463720666E-01
(PID.TID 0000.0001) %MON obc_S_vVel_mean              =  -4.4610877141856E-03
(PID.TID 0000.0001) %MON obc_S_vVel_sd                =   1.9981104762382E-02
(PID.TID 0000.0001) %MON obc_S_vVel_Int               =  -1.3580844571506E+08
(PID.TID 0000.0001) %MON obc_E_theta_max              =   1.7031576156616E+01
(PID.TID 0000.0001) %MON obc_E_theta_min              =   1.2988679885864E+01
(PID.TID 0000.0001) %MON obc_E_theta_mean             =   1.5361316191092E+01
(PID.TID 0000.0001) %MON obc_E_theta_sd               =   1.5938527426439E+00
(PID.TID 0000.0001) %MON obc_N_theta_max              =   1.6146072846277E+01
(PID.TID 0000.0001) %MON obc_N_theta_min              =   1.6874200089403E+00
(PID.TID 0000.0001) %MON obc_N_theta_mean             =   5.2225855502123E+00
(PID.TID 0000.0001) %MON obc_N_theta_sd               =   3.6303814576158E+00
(PID.TID 0000.0001) %MON obc_S_theta_max              =   2.5392426340694E+01
(PID.TID 0000.0001) %MON obc_S_theta_min              =   1.5161808230250E+00
(PID.TID 0000.0001) %MON obc_S_theta_mean             =   5.4082427809832E+00
(PID.TID 0000.0001) %MON obc_S_theta_sd               =   5.1183140868641E+00
(PID.TID 0000.0001) %MON obc_E_salt_max               =   3.8136505126953E+01
(PID.TID 0000.0001) %MON obc_E_salt_min               =   3.5754806518555E+01
(PID.TID 0000.0001) %MON obc_E_salt_mean              =   3.6401586390596E+01
(PID.TID 0000.0001) %MON obc_E_salt_sd                =   4.3532669310507E-01
(PID.TID 0000.0001) %MON obc_N_salt_max               =   3.6395891237531E+01
(PID.TID 0000.0001) %MON obc_N_salt_min               =   3.0617652194793E+01
(PID.TID 0000.0001) %MON obc_N_salt_mean              =   3.5063772508122E+01
(PID.TID 0000.0001) %MON obc_N_salt_sd                =   3.9119826402269E-01
(PID.TID 0000.0001) %MON obc_S_salt_max               =   3.7332420755221E+01
(PID.TID 0000.0001) %MON obc_S_salt_min               =   3.4852181409609E+01
(PID.TID 0000.0001) %MON obc_S_salt_mean              =   3.5186251145274E+01
(PID.TID 0000.0001) %MON obc_S_salt_sd                =   5.1365418588595E-01
(PID.TID 0000.0001) // =======================================================
(PID.TID 0000.0001) // End OBCS MONITOR field statistics
(PID.TID 0000.0001) // =======================================================
(PID.TID 0000.0001) // =======================================================
(PID.TID 0000.0001) // Begin MONITOR EXF statistics
(PID.TID 0000.0001) // =======================================================
(PID.TID 0000.0001) %MON exf_tsnumber                 =                    11
(PID.TID 0000.0001) %MON exf_time_sec                 =   2.6400000000000E+03
(PID.TID 0000.0001) %MON exf_ustress_max              =   8.2165160249721E-01
(PID.TID 0000.0001) %MON exf_ustress_min              =  -3.9158112189025E-01
(PID.TID 0000.0001) %MON exf_ustress_mean             =   6.3761422817012E-02
(PID.TID 0000.0001) %MON exf_ustress_sd               =   1.5362011012554E-01
(PID.TID 0000.0001) %MON exf_ustress_del2             =   3.3760405638290E-07
(PID.TID 0000.0001) %MON exf_vstress_max              =   4.1668670201557E-01
(PID.TID 0000.0001) %MON exf_vstress_min              =  -5.6441347718439E-01
(PID.TID 0000.0001) %MON exf_vstress_mean             =   1.0660274702795E-02
(PID.TID 0000.0001) %MON exf_vstress_sd               =   1.0108626290913E-01
(PID.TID 0000.0001) %MON exf_vstress_del2             =   2.8313946733399E-07
(PID.TID 0000.0001) %MON exf_hflux_max                =   6.7577172754938E+02
(PID.TID 0000.0001) %MON exf_hflux_min                =  -3.1362421959364E+02
(PID.TID 0000.0001) %MON exf_hflux_mean               =   2.0066781780533E+02
(PID.TID 0000.0001) %MON exf_hflux_sd                 =   1.2112330161449E+02
(PID.TID 0000.0001) %MON exf_hflux_del2               =   9.2235076624967E-02
(PID.TID 0000.0001) %MON exf_sflux_max                =   1.6712909049271E-07
(PID.TID 0000.0001) %MON exf_sflux_min                =  -1.7712360240888E-06
(PID.TID 0000.0001) %MON exf_sflux_mean               =   6.9668066603914E-09
(PID.TID 0000.0001) %MON exf_sflux_sd                 =   1.3238132528375E-07
(PID.TID 0000.0001) %MON exf_sflux_del2               =   5.2770188991134E-11
(PID.TID 0000.0001) %MON exf_uwind_max                =   1.9471230633925E+01
(PID.TID 0000.0001) %MON exf_uwind_min                =  -1.4803208956651E+01
(PID.TID 0000.0001) %MON exf_uwind_mean               =   2.5121433008680E+00
(PID.TID 0000.0001) %MON exf_uwind_sd                 =   6.6583323894725E+00
(PID.TID 0000.0001) %MON exf_uwind_del2               =   2.8407266421600E-03
(PID.TID 0000.0001) %MON exf_vwind_max                =   1.4506339437792E+01
(PID.TID 0000.0001) %MON exf_vwind_min                =  -1.2796429442545E+01
(PID.TID 0000.0001) %MON exf_vwind_mean               =   8.5592990345336E-01
(PID.TID 0000.0001) %MON exf_vwind_sd                 =   5.1806708956243E+00
(PID.TID 0000.0001) %MON exf_vwind_del2               =   2.0886443532916E-03
(PID.TID 0000.0001) %MON exf_wspeed_max               =   2.0179285428609E+01
(PID.TID 0000.0001) %MON exf_wspeed_min               =   3.9187198678010E-03
(PID.TID 0000.0001) %MON exf_wspeed_mean              =   7.7096608746227E+00
(PID.TID 0000.0001) %MON exf_wspeed_sd                =   4.3332840086359E+00
(PID.TID 0000.0001) %MON exf_wspeed_del2              =   3.5256285939441E-03
(PID.TID 0000.0001) %MON exf_atemp_max                =   2.9815365399267E+02
(PID.TID 0000.0001) %MON exf_atemp_min                =   2.7427014538059E+02
(PID.TID 0000.0001) %MON exf_atemp_mean               =   2.9066797523443E+02
(PID.TID 0000.0001) %MON exf_atemp_sd                 =   3.9457265838493E+00
(PID.TID 0000.0001) %MON exf_atemp_del2               =   6.8364852155943E-03
(PID.TID 0000.0001) %MON exf_aqh_max                  =   1.6745626223720E-02
(PID.TID 0000.0001) %MON exf_aqh_min                  =   2.7148212570767E-03
(PID.TID 0000.0001) %MON exf_aqh_mean                 =   9.4157557514594E-03
(PID.TID 0000.0001) %MON exf_aqh_sd                   =   2.8762143650033E-03
(PID.TID 0000.0001) %MON exf_aqh_del2                 =   3.7481344747525E-06
(PID.TID 0000.0001) %MON exf_lwflux_max               =   1.6612477882940E+02
(PID.TID 0000.0001) %MON exf_lwflux_min               =  -7.7502736455440E+00
(PID.TID 0000.0001) %MON exf_lwflux_mean              =   6.0708465830356E+01
(PID.TID 0000.0001) %MON exf_lwflux_sd                =   2.6639669642462E+01
(PID.TID 0000.0001) %MON exf_lwflux_del2              =   2.5502240873645E-02
(PID.TID 0000.0001) %MON exf_evap_max                 =   1.9112904822529E-07
(PID.TID 0000.0001) %MON exf_evap_min                 =  -1.0213182293992E-07
(PID.TID 0000.0001) %MON exf_evap_mean                =   4.9643039854506E-08
(PID.TID 0000.0001) %MON exf_evap_sd                  =   3.8626755862321E-08
(PID.TID 0000.0001) %MON exf_evap_del2                =   2.4870081876897E-11
(PID.TID 0000.0001) %MON exf_precip_max               =   1.9530076773174E-06
(PID.TID 0000.0001) %MON exf_precip_min               =   0.0000000000000E+00
(PID.TID 0000.0001) %MON exf_precip_mean              =   4.1087872982150E-08
(PID.TID 0000.0001) %MON exf_precip_sd                =   1.3784232205647E-07
(PID.TID 0000.0001) %MON exf_precip_del2              =   5.7830930909722E-11
(PID.TID 0000.0001) %MON exf_swflux_max               =   0.0000000000000E+00
(PID.TID 0000.0001) %MON exf_swflux_min               =   0.0000000000000E+00
(PID.TID 0000.0001) %MON exf_swflux_mean              =   0.0000000000000E+00
(PID.TID 0000.0001) %MON exf_swflux_sd                =   0.0000000000000E+00
(PID.TID 0000.0001) %MON exf_swflux_del2              =   0.0000000000000E+00
(PID.TID 0000.0001) %MON exf_swdown_max               =   0.0000000000000E+00
(PID.TID 0000.0001) %MON exf_swdown_min               =   0.0000000000000E+00
(PID.TID 0000.0001) %MON exf_swdown_mean              =   0.0000000000000E+00
(PID.TID 0000.0001) %MON exf_swdown_sd                =   0.0000000000000E+00
(PID.TID 0000.0001) %MON exf_swdown_del2              =   0.0000000000000E+00
(PID.TID 0000.0001) %MON exf_lwdown_max               =   4.1834379762812E+02
(PID.TID 0000.0001) %MON exf_lwdown_min               =   2.2446257076056E+02
(PID.TID 0000.0001) %MON exf_lwdown_mean              =   3.4966640434659E+02
(PID.TID 0000.0001) %MON exf_lwdown_sd                =   3.1662820616024E+01
(PID.TID 0000.0001) %MON exf_lwdown_del2              =   1.3542967299529E-01
(PID.TID 0000.0001) %MON exf_apressure_max            =   1.0280887953443E+05
(PID.TID 0000.0001) %MON exf_apressure_min            =   1.0001557376642E+05
(PID.TID 0000.0001) %MON exf_apressure_mean           =   1.0216761898320E+05
(PID.TID 0000.0001) %MON exf_apressure_sd             =   4.9875877287686E+02
(PID.TID 0000.0001) %MON exf_apressure_del2           =   3.9521382034785E+01
(PID.TID 0000.0001) %MON exf_runoff_max               =   4.4374791284855E-08
(PID.TID 0000.0001) %MON exf_runoff_min               =   0.0000000000000E+00
(PID.TID 0000.0001) %MON exf_runoff_mean              =   1.5883602119650E-09
(PID.TID 0000.0001) %MON exf_runoff_sd                =   5.3902197283252E-09
(PID.TID 0000.0001) %MON exf_runoff_del2              =   2.2191549266395E-12
(PID.TID 0000.0001) // =======================================================
(PID.TID 0000.0001) // End MONITOR EXF statistics
(PID.TID 0000.0001) // =======================================================
 cg2d: Sum(rhs),rhsMax =   6.84702678165729E+02  5.47013989666021E-02
(PID.TID 0000.0001)      cg2d_init_res =   5.47552333093295E-01
(PID.TID 0000.0001)      cg2d_iters(min,last) =      -1     307
(PID.TID 0000.0001)      cg2d_last_res =   6.60308693623275E-12
(PID.TID 0000.0001) // =======================================================
(PID.TID 0000.0001) // Begin MONITOR dynamic field statistics
(PID.TID 0000.0001) // =======================================================
(PID.TID 0000.0001) %MON time_tsnumber                =                    12
(PID.TID 0000.0001) %MON time_secondsf                =   2.8800000000000E+03
(PID.TID 0000.0001) %MON dynstat_eta_max              =   8.7281200399062E-01
(PID.TID 0000.0001) %MON dynstat_eta_min              =  -7.4120524346349E-01
(PID.TID 0000.0001) %MON dynstat_eta_mean             =  -2.3285397037654E-02
(PID.TID 0000.0001) %MON dynstat_eta_sd               =   1.6201346090761E-01
(PID.TID 0000.0001) %MON dynstat_eta_del2             =   1.2319004376875E-06
(PID.TID 0000.0001) %MON dynstat_uvel_max             =   8.6655916637231E-01
(PID.TID 0000.0001) %MON dynstat_uvel_min             =  -3.3160797419822E-01
(PID.TID 0000.0001) %MON dynstat_uvel_mean            =  -2.3657162096484E-03
(PID.TID 0000.0001) %MON dynstat_uvel_sd              =   1.7187974759597E-02
(PID.TID 0000.0001) %MON dynstat_uvel_del2            =   2.0107563815991E-07
(PID.TID 0000.0001) %MON dynstat_vvel_max             =   8.7127887589289E-01
(PID.TID 0000.0001) %MON dynstat_vvel_min             =  -6.4160367507926E-01
(PID.TID 0000.0001) %MON dynstat_vvel_mean            =  -6.2349074298176E-03
(PID.TID 0000.0001) %MON dynstat_vvel_sd              =   1.6482750611644E-02
(PID.TID 0000.0001) %MON dynstat_vvel_del2            =   1.6557380725424E-07
(PID.TID 0000.0001) %MON dynstat_wvel_max             =   6.6103579597475E-03
(PID.TID 0000.0001) %MON dynstat_wvel_min             =  -5.6587212569307E-03
(PID.TID 0000.0001) %MON dynstat_wvel_mean            =  -2.7665322823713E-06
(PID.TID 0000.0001) %MON dynstat_wvel_sd              =   1.2693340202419E-04
(PID.TID 0000.0001) %MON dynstat_wvel_del2            =   1.3517614527742E-08
(PID.TID 0000.0001) %MON dynstat_theta_max            =   2.5562657534375E+01
(PID.TID 0000.0001) %MON dynstat_theta_min            =   1.4441539514277E+00
(PID.TID 0000.0001) %MON dynstat_theta_mean           =   5.5933879178445E+00
(PID.TID 0000.0001) %MON dynstat_theta_sd             =   4.7972729490580E+00
(PID.TID 0000.0001) %MON dynstat_theta_del2           =   1.5373704163452E-06
(PID.TID 0000.0001) %MON dynstat_salt_max             =   3.8091531559351E+01
(PID.TID 0000.0001) %MON dynstat_salt_min             =   3.0534372706473E+01
(PID.TID 0000.0001) %MON dynstat_salt_mean            =   3.5189814658030E+01
(PID.TID 0000.0001) %MON dynstat_salt_sd              =   4.6942401189003E-01
(PID.TID 0000.0001) %MON dynstat_salt_del2            =   3.0559871382895E-07
(PID.TID 0000.0001) %MON forcing_qnet_max             =   6.8108867134076E+02
(PID.TID 0000.0001) %MON forcing_qnet_min             =  -3.1857203879693E+02
(PID.TID 0000.0001) %MON forcing_qnet_mean            =   2.0180896151238E+02
(PID.TID 0000.0001) %MON forcing_qnet_sd              =   1.2234360242077E+02
(PID.TID 0000.0001) %MON forcing_qnet_del2            =   9.7776984385017E-04
(PID.TID 0000.0001) %MON forcing_qsw_max              =   0.0000000000000E+00
(PID.TID 0000.0001) %MON forcing_qsw_min              =   0.0000000000000E+00
(PID.TID 0000.0001) %MON forcing_qsw_mean             =   0.0000000000000E+00
(PID.TID 0000.0001) %MON forcing_qsw_sd               =   0.0000000000000E+00
(PID.TID 0000.0001) %MON forcing_qsw_del2             =   0.0000000000000E+00
(PID.TID 0000.0001) %MON forcing_empmr_max            =   1.6712909049271E-04
(PID.TID 0000.0001) %MON forcing_empmr_min            =  -1.7712360240888E-03
(PID.TID 0000.0001) %MON forcing_empmr_mean           =   6.9668066603914E-06
(PID.TID 0000.0001) %MON forcing_empmr_sd             =   1.3238132528375E-04
(PID.TID 0000.0001) %MON forcing_empmr_del2           =   2.8415910634906E-09
(PID.TID 0000.0001) %MON forcing_fu_max               =   8.2164190240547E-01
(PID.TID 0000.0001) %MON forcing_fu_min               =  -3.9157009829065E-01
(PID.TID 0000.0001) %MON forcing_fu_mean              =   6.3820385305143E-02
(PID.TID 0000.0001) %MON forcing_fu_sd                =   1.5367747636293E-01
(PID.TID 0000.0001) %MON forcing_fu_del2              =   3.1801928087970E-07
(PID.TID 0000.0001) %MON forcing_fv_max               =   4.1661656005094E-01
(PID.TID 0000.0001) %MON forcing_fv_min               =  -5.6870310924066E-01
(PID.TID 0000.0001) %MON forcing_fv_mean              =   1.0643624139196E-02
(PID.TID 0000.0001) %MON forcing_fv_sd                =   1.0121646351269E-01
(PID.TID 0000.0001) %MON forcing_fv_del2              =   2.5764882229488E-07
(PID.TID 0000.0001) %MON trAdv_CFL_u_max              =   5.0376260586485E-02
(PID.TID 0000.0001) %MON trAdv_CFL_v_max              =   5.5229116266334E-02
(PID.TID 0000.0001) %MON trAdv_CFL_w_max              =   2.6119363691506E-01
(PID.TID 0000.0001) %MON advcfl_uvel_max              =   5.0376259841258E-02
(PID.TID 0000.0001) %MON advcfl_vvel_max              =   5.5248414657139E-02
(PID.TID 0000.0001) %MON advcfl_wvel_max              =   2.6119363691506E-01
(PID.TID 0000.0001) %MON advcfl_W_hf_max              =   2.6119363691506E-01
(PID.TID 0000.0001) %MON pe_b_mean                    =  -5.4164902486009E-04
(PID.TID 0000.0001) %MON ke_max                       =   4.5985858470347E-01
(PID.TID 0000.0001) %MON ke_mean                      =   3.0343848146737E-04
(PID.TID 0000.0001) %MON ke_vol                       =   4.5818599895265E+16
(PID.TID 0000.0001) %MON vort_r_min                   =  -3.2703110281327E-04
(PID.TID 0000.0001) %MON vort_r_max                   =   3.8466968834023E-04
(PID.TID 0000.0001) %MON vort_a_mean                  =   8.2147592031998E-05
(PID.TID 0000.0001) %MON vort_a_sd                    =   9.7080782614127E-06
(PID.TID 0000.0001) %MON vort_p_mean                  =   8.4848812319913E-05
(PID.TID 0000.0001) %MON vort_p_sd                    =   3.5004912174790E-05
(PID.TID 0000.0001) %MON surfExpan_theta_mean         =   1.9372329410367E-05
(PID.TID 0000.0001) %MON surfExpan_salt_mean          =  -6.7341019434275E-05
(PID.TID 0000.0001) // =======================================================
(PID.TID 0000.0001) // End MONITOR dynamic field statistics
(PID.TID 0000.0001) // =======================================================
(PID.TID 0000.0001) // =======================================================
(PID.TID 0000.0001) // Begin OBCS MONITOR field statistics
(PID.TID 0000.0001) // =======================================================
(PID.TID 0000.0001) %MON obc_E_uVel_max               =   1.6676009506924E-01
(PID.TID 0000.0001) %MON obc_E_uVel_min               =  -2.0291738199766E-02
(PID.TID 0000.0001) %MON obc_E_uVel_mean              =   8.2487452252381E-02
(PID.TID 0000.0001) %MON obc_E_uVel_sd                =   4.4473966785693E-02
(PID.TID 0000.0001) %MON obc_E_uVel_Int               =   7.8816097117069E+05
(PID.TID 0000.0001) %MON obc_N_vVel_max               =   7.4112130853829E-02
(PID.TID 0000.0001) %MON obc_N_vVel_min               =  -5.9667766800702E-01
(PID.TID 0000.0001) %MON obc_N_vVel_mean              =  -7.0249107828771E-03
(PID.TID 0000.0001) %MON obc_N_vVel_sd                =   1.6836114122853E-02
(PID.TID 0000.0001) %MON obc_N_vVel_Int               =  -1.0056219119962E+08
(PID.TID 0000.0001) %MON obc_S_vVel_max               =   6.4757549410195E-01
(PID.TID 0000.0001) %MON obc_S_vVel_min               =  -1.0665829623507E-01
(PID.TID 0000.0001) %MON obc_S_vVel_mean              =  -4.0874758574692E-03
(PID.TID 0000.0001) %MON obc_S_vVel_sd                =   1.9960220714621E-02
(PID.TID 0000.0001) %MON obc_S_vVel_Int               =  -1.2443461744442E+08
(PID.TID 0000.0001) %MON obc_E_theta_max              =   1.7031576156616E+01
(PID.TID 0000.0001) %MON obc_E_theta_min              =   1.2988679885864E+01
(PID.TID 0000.0001) %MON obc_E_theta_mean             =   1.5361316191092E+01
(PID.TID 0000.0001) %MON obc_E_theta_sd               =   1.5938527426439E+00
(PID.TID 0000.0001) %MON obc_N_theta_max              =   1.6146078437685E+01
(PID.TID 0000.0001) %MON obc_N_theta_min              =   1.6873513347396E+00
(PID.TID 0000.0001) %MON obc_N_theta_mean             =   5.2225836239236E+00
(PID.TID 0000.0001) %MON obc_N_theta_sd               =   3.6303776730129E+00
(PID.TID 0000.0001) %MON obc_S_theta_max              =   2.5392414063513E+01
(PID.TID 0000.0001) %MON obc_S_theta_min              =   1.5161808013100E+00
(PID.TID 0000.0001) %MON obc_S_theta_mean             =   5.4082418598353E+00
(PID.TID 0000.0001) %MON obc_S_theta_sd               =   5.1183108915447E+00
(PID.TID 0000.0001) %MON obc_E_salt_max               =   3.8136505126953E+01
(PID.TID 0000.0001) %MON obc_E_salt_min               =   3.5754806518555E+01
(PID.TID 0000.0001) %MON obc_E_salt_mean              =   3.6401586390596E+01
(PID.TID 0000.0001) %MON obc_E_salt_sd                =   4.3532669310507E-01
(PID.TID 0000.0001) %MON obc_N_salt_max               =   3.6395892580987E+01
(PID.TID 0000.0001) %MON obc_N_salt_min               =   3.0617668758395E+01
(PID.TID 0000.0001) %MON obc_N_salt_mean              =   3.5063772578474E+01
(PID.TID 0000.0001) %MON obc_N_salt_sd                =   3.9119789216293E-01
(PID.TID 0000.0001) %MON obc_S_salt_max               =   3.7332411376097E+01
(PID.TID 0000.0001) %MON obc_S_salt_min               =   3.4852181407868E+01
(PID.TID 0000.0001) %MON obc_S_salt_mean              =   3.5186251185770E+01
(PID.TID 0000.0001) %MON obc_S_salt_sd                =   5.1365427200491E-01
(PID.TID 0000.0001) // =======================================================
(PID.TID 0000.0001) // End OBCS MONITOR field statistics
(PID.TID 0000.0001) // =======================================================
(PID.TID 0000.0001) // =======================================================
(PID.TID 0000.0001) // Begin MONITOR EXF statistics
(PID.TID 0000.0001) // =======================================================
(PID.TID 0000.0001) %MON exf_tsnumber                 =                    12
(PID.TID 0000.0001) %MON exf_time_sec                 =   2.8800000000000E+03
(PID.TID 0000.0001) %MON exf_ustress_max              =   8.3597896813355E-01
(PID.TID 0000.0001) %MON exf_ustress_min              =  -3.8943583318681E-01
(PID.TID 0000.0001) %MON exf_ustress_mean             =   6.3952964107837E-02
(PID.TID 0000.0001) %MON exf_ustress_sd               =   1.5389249836455E-01
(PID.TID 0000.0001) %MON exf_ustress_del2             =   3.5351317438424E-07
(PID.TID 0000.0001) %MON exf_vstress_max              =   4.2016292273783E-01
(PID.TID 0000.0001) %MON exf_vstress_min              =  -5.6590595626152E-01
(PID.TID 0000.0001) %MON exf_vstress_mean             =   1.0724713321346E-02
(PID.TID 0000.0001) %MON exf_vstress_sd               =   1.0134553667547E-01
(PID.TID 0000.0001) %MON exf_vstress_del2             =   2.9843871965113E-07
(PID.TID 0000.0001) %MON exf_hflux_max                =   6.7295360269311E+02
(PID.TID 0000.0001) %MON exf_hflux_min                =  -3.1591702524766E+02
(PID.TID 0000.0001) %MON exf_hflux_mean               =   2.0076193321812E+02
(PID.TID 0000.0001) %MON exf_hflux_sd                 =   1.2121115227171E+02
(PID.TID 0000.0001) %MON exf_hflux_del2               =   9.2291889758559E-02
(PID.TID 0000.0001) %MON exf_sflux_max                =   1.6657167441535E-07
(PID.TID 0000.0001) %MON exf_sflux_min                =  -1.7900816652491E-06
(PID.TID 0000.0001) %MON exf_sflux_mean               =   6.7526997292894E-09
(PID.TID 0000.0001) %MON exf_sflux_sd                 =   1.3243644544185E-07
(PID.TID 0000.0001) %MON exf_sflux_del2               =   5.2670018094302E-11
(PID.TID 0000.0001) %MON exf_uwind_max                =   1.9596707635897E+01
(PID.TID 0000.0001) %MON exf_uwind_min                =  -1.4780305352291E+01
(PID.TID 0000.0001) %MON exf_uwind_mean               =   2.5135356211313E+00
(PID.TID 0000.0001) %MON exf_uwind_sd                 =   6.6604130950731E+00
(PID.TID 0000.0001) %MON exf_uwind_del2               =   2.8416798197568E-03
(PID.TID 0000.0001) %MON exf_vwind_max                =   1.4573845678627E+01
(PID.TID 0000.0001) %MON exf_vwind_min                =  -1.2816136646741E+01
(PID.TID 0000.0001) %MON exf_vwind_mean               =   8.5758245481038E-01
(PID.TID 0000.0001) %MON exf_vwind_sd                 =   5.1842601153090E+00
(PID.TID 0000.0001) %MON exf_vwind_del2               =   2.0905008032920E-03
(PID.TID 0000.0001) %MON exf_wspeed_max               =   2.0171127791087E+01
(PID.TID 0000.0001) %MON exf_wspeed_min               =   3.2242126675385E-03
(PID.TID 0000.0001) %MON exf_wspeed_mean              =   7.7119003098765E+00
(PID.TID 0000.0001) %MON exf_wspeed_sd                =   4.3379209462858E+00
(PID.TID 0000.0001) %MON exf_wspeed_del2              =   3.5274834631644E-03
(PID.TID 0000.0001) %MON exf_atemp_max                =   2.9815145670426E+02
(PID.TID 0000.0001) %MON exf_atemp_min                =   2.7424454417195E+02
(PID.TID 0000.0001) %MON exf_atemp_mean               =   2.9066485434692E+02
(PID.TID 0000.0001) %MON exf_atemp_sd                 =   3.9466144537080E+00
(PID.TID 0000.0001) %MON exf_atemp_del2               =   6.8353430928185E-03
(PID.TID 0000.0001) %MON exf_aqh_max                  =   1.6738639922846E-02
(PID.TID 0000.0001) %MON exf_aqh_min                  =   2.7125265593127E-03
(PID.TID 0000.0001) %MON exf_aqh_mean                 =   9.4145674005058E-03
(PID.TID 0000.0001) %MON exf_aqh_sd                   =   2.8774342186488E-03
(PID.TID 0000.0001) %MON exf_aqh_del2                 =   3.7477534925979E-06
(PID.TID 0000.0001) %MON exf_lwflux_max               =   1.6643588032986E+02
(PID.TID 0000.0001) %MON exf_lwflux_min               =  -6.6786573007216E+00
(PID.TID 0000.0001) %MON exf_lwflux_mean              =   6.0692109596209E+01
(PID.TID 0000.0001) %MON exf_lwflux_sd                =   2.6598619796291E+01
(PID.TID 0000.0001) %MON exf_lwflux_del2              =   2.5487577141729E-02
(PID.TID 0000.0001) %MON exf_evap_max                 =   1.9141889208560E-07
(PID.TID 0000.0001) %MON exf_evap_min                 =  -1.0286518957751E-07
(PID.TID 0000.0001) %MON exf_evap_mean                =   4.9672071073668E-08
(PID.TID 0000.0001) %MON exf_evap_sd                  =   3.8644093141041E-08
(PID.TID 0000.0001) %MON exf_evap_del2                =   2.4885957909589E-11
(PID.TID 0000.0001) %MON exf_precip_max               =   1.9724582042779E-06
(PID.TID 0000.0001) %MON exf_precip_min               =   0.0000000000000E+00
(PID.TID 0000.0001) %MON exf_precip_mean              =   4.1331011132413E-08
(PID.TID 0000.0001) %MON exf_precip_sd                =   1.3800561762770E-07
(PID.TID 0000.0001) %MON exf_precip_del2              =   5.7809705414520E-11
(PID.TID 0000.0001) %MON exf_swflux_max               =   0.0000000000000E+00
(PID.TID 0000.0001) %MON exf_swflux_min               =   0.0000000000000E+00
(PID.TID 0000.0001) %MON exf_swflux_mean              =   0.0000000000000E+00
(PID.TID 0000.0001) %MON exf_swflux_sd                =   0.0000000000000E+00
(PID.TID 0000.0001) %MON exf_swflux_del2              =   0.0000000000000E+00
(PID.TID 0000.0001) %MON exf_swdown_max               =   0.0000000000000E+00
(PID.TID 0000.0001) %MON exf_swdown_min               =   0.0000000000000E+00
(PID.TID 0000.0001) %MON exf_swdown_mean              =   0.0000000000000E+00
(PID.TID 0000.0001) %MON exf_swdown_sd                =   0.0000000000000E+00
(PID.TID 0000.0001) %MON exf_swdown_del2              =   0.0000000000000E+00
(PID.TID 0000.0001) %MON exf_lwdown_max               =   4.1837492023739E+02
(PID.TID 0000.0001) %MON exf_lwdown_min               =   2.2467589834697E+02
(PID.TID 0000.0001) %MON exf_lwdown_mean              =   3.4968090955508E+02
(PID.TID 0000.0001) %MON exf_lwdown_sd                =   3.1587310835101E+01
(PID.TID 0000.0001) %MON exf_lwdown_del2              =   1.3543379341805E-01
(PID.TID 0000.0001) %MON exf_apressure_max            =   1.0281199025705E+05
(PID.TID 0000.0001) %MON exf_apressure_min            =   1.0001627344352E+05
(PID.TID 0000.0001) %MON exf_apressure_mean           =   1.0216839635415E+05
(PID.TID 0000.0001) %MON exf_apressure_sd             =   4.9879487917214E+02
(PID.TID 0000.0001) %MON exf_apressure_del2           =   3.9521689793020E+01
(PID.TID 0000.0001) %MON exf_runoff_max               =   4.4374791284855E-08
(PID.TID 0000.0001) %MON exf_runoff_min               =   0.0000000000000E+00
(PID.TID 0000.0001) %MON exf_runoff_mean              =   1.5883602119650E-09
(PID.TID 0000.0001) %MON exf_runoff_sd                =   5.3902197283252E-09
(PID.TID 0000.0001) %MON exf_runoff_del2              =   2.2191549266395E-12
(PID.TID 0000.0001) // =======================================================
(PID.TID 0000.0001) // End MONITOR EXF statistics
(PID.TID 0000.0001) // =======================================================
 cg2d: Sum(rhs),rhsMax =   6.92335374892874E+02  5.63636250130576E-02
(PID.TID 0000.0001)      cg2d_init_res =   5.33909225384138E-01
(PID.TID 0000.0001)      cg2d_iters(min,last) =      -1     306
(PID.TID 0000.0001)      cg2d_last_res =   6.67213152650826E-12
(PID.TID 0000.0001) // =======================================================
(PID.TID 0000.0001) // Begin MONITOR dynamic field statistics
(PID.TID 0000.0001) // =======================================================
(PID.TID 0000.0001) %MON time_tsnumber                =                    13
(PID.TID 0000.0001) %MON time_secondsf                =   3.1200000000000E+03
(PID.TID 0000.0001) %MON dynstat_eta_max              =   8.3397712403026E-01
(PID.TID 0000.0001) %MON dynstat_eta_min              =  -8.1510913554529E-01
(PID.TID 0000.0001) %MON dynstat_eta_mean             =  -2.3544970104077E-02
(PID.TID 0000.0001) %MON dynstat_eta_sd               =   1.6739275571011E-01
(PID.TID 0000.0001) %MON dynstat_eta_del2             =   1.2304904642785E-06
(PID.TID 0000.0001) %MON dynstat_uvel_max             =   8.0696374003692E-01
(PID.TID 0000.0001) %MON dynstat_uvel_min             =  -3.3944387767287E-01
(PID.TID 0000.0001) %MON dynstat_uvel_mean            =  -2.6327090840385E-03
(PID.TID 0000.0001) %MON dynstat_uvel_sd              =   1.7176167403875E-02
(PID.TID 0000.0001) %MON dynstat_uvel_del2            =   2.0618766207564E-07
(PID.TID 0000.0001) %MON dynstat_vvel_max             =   8.7261522786930E-01
(PID.TID 0000.0001) %MON dynstat_vvel_min             =  -6.4097289607067E-01
(PID.TID 0000.0001) %MON dynstat_vvel_mean            =  -6.4823810243248E-03
(PID.TID 0000.0001) %MON dynstat_vvel_sd              =   1.6546656722894E-02
(PID.TID 0000.0001) %MON dynstat_vvel_del2            =   1.7024229559530E-07
(PID.TID 0000.0001) %MON dynstat_wvel_max             =   6.7307000836560E-03
(PID.TID 0000.0001) %MON dynstat_wvel_min             =  -5.6529840103128E-03
(PID.TID 0000.0001) %MON dynstat_wvel_mean            =  -2.0950991513219E-06
(PID.TID 0000.0001) %MON dynstat_wvel_sd              =   1.3035170877296E-04
(PID.TID 0000.0001) %MON dynstat_wvel_del2            =   1.3722525940706E-08
(PID.TID 0000.0001) %MON dynstat_theta_max            =   2.5562782845404E+01
(PID.TID 0000.0001) %MON dynstat_theta_min            =   1.4441539553041E+00
(PID.TID 0000.0001) %MON dynstat_theta_mean           =   5.5933828384080E+00
(PID.TID 0000.0001) %MON dynstat_theta_sd             =   4.7972576593025E+00
(PID.TID 0000.0001) %MON dynstat_theta_del2           =   1.5446242541999E-06
(PID.TID 0000.0001) %MON dynstat_salt_max             =   3.8090739527297E+01
(PID.TID 0000.0001) %MON dynstat_salt_min             =   3.0534703084317E+01
(PID.TID 0000.0001) %MON dynstat_salt_mean            =   3.5189813916993E+01
(PID.TID 0000.0001) %MON dynstat_salt_sd              =   4.6942435561686E-01
(PID.TID 0000.0001) %MON dynstat_salt_del2            =   3.1202970534934E-07
(PID.TID 0000.0001) %MON forcing_qnet_max             =   6.7895493489771E+02
(PID.TID 0000.0001) %MON forcing_qnet_min             =  -3.2085559985449E+02
(PID.TID 0000.0001) %MON forcing_qnet_mean            =   2.0188925835576E+02
(PID.TID 0000.0001) %MON forcing_qnet_sd              =   1.2241610440100E+02
(PID.TID 0000.0001) %MON forcing_qnet_del2            =   9.9012961222575E-04
(PID.TID 0000.0001) %MON forcing_qsw_max              =   0.0000000000000E+00
(PID.TID 0000.0001) %MON forcing_qsw_min              =   0.0000000000000E+00
(PID.TID 0000.0001) %MON forcing_qsw_mean             =   0.0000000000000E+00
(PID.TID 0000.0001) %MON forcing_qsw_sd               =   0.0000000000000E+00
(PID.TID 0000.0001) %MON forcing_qsw_del2             =   0.0000000000000E+00
(PID.TID 0000.0001) %MON forcing_empmr_max            =   1.6657167441535E-04
(PID.TID 0000.0001) %MON forcing_empmr_min            =  -1.7900816652491E-03
(PID.TID 0000.0001) %MON forcing_empmr_mean           =   6.7526997292894E-06
(PID.TID 0000.0001) %MON forcing_empmr_sd             =   1.3243644544185E-04
(PID.TID 0000.0001) %MON forcing_empmr_del2           =   2.7266352822248E-09
(PID.TID 0000.0001) %MON forcing_fu_max               =   8.3597026207757E-01
(PID.TID 0000.0001) %MON forcing_fu_min               =  -3.8936786403219E-01
(PID.TID 0000.0001) %MON forcing_fu_mean              =   6.4012439621273E-02
(PID.TID 0000.0001) %MON forcing_fu_sd                =   1.5395001126934E-01
(PID.TID 0000.0001) %MON forcing_fu_del2              =   3.3382242741264E-07
(PID.TID 0000.0001) %MON forcing_fv_max               =   4.1997630578507E-01
(PID.TID 0000.0001) %MON forcing_fv_min               =  -5.7035716154891E-01
(PID.TID 0000.0001) %MON forcing_fv_mean              =   1.0708426103243E-02
(PID.TID 0000.0001) %MON forcing_fv_sd                =   1.0147584043118E-01
(PID.TID 0000.0001) %MON forcing_fv_del2              =   2.7295628868756E-07
(PID.TID 0000.0001) %MON trAdv_CFL_u_max              =   4.8137778133985E-02
(PID.TID 0000.0001) %MON trAdv_CFL_v_max              =   5.5313825698320E-02
(PID.TID 0000.0001) %MON trAdv_CFL_w_max              =   2.5249056989416E-01
(PID.TID 0000.0001) %MON advcfl_uvel_max              =   4.8137777648969E-02
(PID.TID 0000.0001) %MON advcfl_vvel_max              =   5.5333153688652E-02
(PID.TID 0000.0001) %MON advcfl_wvel_max              =   2.5249056989416E-01
(PID.TID 0000.0001) %MON advcfl_W_hf_max              =   2.5249056989416E-01
(PID.TID 0000.0001) %MON pe_b_mean                    =  -5.4593246749556E-04
(PID.TID 0000.0001) %MON ke_max                       =   4.5860109202354E-01
(PID.TID 0000.0001) %MON ke_mean                      =   3.0651630634978E-04
(PID.TID 0000.0001) %MON ke_vol                       =   4.5818599895265E+16
(PID.TID 0000.0001) %MON vort_r_min                   =  -3.2877882378767E-04
(PID.TID 0000.0001) %MON vort_r_max                   =   3.7898521229021E-04
(PID.TID 0000.0001) %MON vort_a_mean                  =   8.2147592316068E-05
(PID.TID 0000.0001) %MON vort_a_sd                    =   9.7082931510550E-06
(PID.TID 0000.0001) %MON vort_p_mean                  =   8.4848812613324E-05
(PID.TID 0000.0001) %MON vort_p_sd                    =   3.5006024725005E-05
(PID.TID 0000.0001) %MON surfExpan_theta_mean         =   4.1945975161762E-05
(PID.TID 0000.0001) %MON surfExpan_salt_mean          =  -2.7710867495699E-05
(PID.TID 0000.0001) // =======================================================
(PID.TID 0000.0001) // End MONITOR dynamic field statistics
(PID.TID 0000.0001) // =======================================================
(PID.TID 0000.0001) // =======================================================
(PID.TID 0000.0001) // Begin OBCS MONITOR field statistics
(PID.TID 0000.0001) // =======================================================
(PID.TID 0000.0001) %MON obc_E_uVel_max               =   1.5484310113252E-01
(PID.TID 0000.0001) %MON obc_E_uVel_min               =  -2.6290777105597E-02
(PID.TID 0000.0001) %MON obc_E_uVel_mean              =   7.7122399260798E-02
(PID.TID 0000.0001) %MON obc_E_uVel_sd                =   4.3512024760419E-02
(PID.TID 0000.0001) %MON obc_E_uVel_Int               =   7.3689832138863E+05
(PID.TID 0000.0001) %MON obc_N_vVel_max               =   7.4051447650187E-02
(PID.TID 0000.0001) %MON obc_N_vVel_min               =  -5.9309968757023E-01
(PID.TID 0000.0001) %MON obc_N_vVel_mean              =  -7.0842033574241E-03
(PID.TID 0000.0001) %MON obc_N_vVel_sd                =   1.6825587302110E-02
(PID.TID 0000.0001) %MON obc_N_vVel_Int               =  -1.0141096941227E+08
(PID.TID 0000.0001) %MON obc_S_vVel_max               =   6.4832134033940E-01
(PID.TID 0000.0001) %MON obc_S_vVel_min               =  -1.0655498110809E-01
(PID.TID 0000.0001) %MON obc_S_vVel_mean              =  -3.7084799173283E-03
(PID.TID 0000.0001) %MON obc_S_vVel_sd                =   1.9939018378247E-02
(PID.TID 0000.0001) %MON obc_S_vVel_Int               =  -1.1289688206227E+08
(PID.TID 0000.0001) %MON obc_E_theta_max              =   1.7031576156616E+01
(PID.TID 0000.0001) %MON obc_E_theta_min              =   1.2988679885864E+01
(PID.TID 0000.0001) %MON obc_E_theta_mean             =   1.5361316191092E+01
(PID.TID 0000.0001) %MON obc_E_theta_sd               =   1.5938527426439E+00
(PID.TID 0000.0001) %MON obc_N_theta_max              =   1.6146084029093E+01
(PID.TID 0000.0001) %MON obc_N_theta_min              =   1.6872826605389E+00
(PID.TID 0000.0001) %MON obc_N_theta_mean             =   5.2225816976349E+00
(PID.TID 0000.0001) %MON obc_N_theta_sd               =   3.6303738884683E+00
(PID.TID 0000.0001) %MON obc_S_theta_max              =   2.5392401786332E+01
(PID.TID 0000.0001) %MON obc_S_theta_min              =   1.5161807795950E+00
(PID.TID 0000.0001) %MON obc_S_theta_mean             =   5.4082409386874E+00
(PID.TID 0000.0001) %MON obc_S_theta_sd               =   5.1183076962382E+00
(PID.TID 0000.0001) %MON obc_E_salt_max               =   3.8136505126953E+01
(PID.TID 0000.0001) %MON obc_E_salt_min               =   3.5754806518555E+01
(PID.TID 0000.0001) %MON obc_E_salt_mean              =   3.6401586390596E+01
(PID.TID 0000.0001) %MON obc_E_salt_sd                =   4.3532669310507E-01
(PID.TID 0000.0001) %MON obc_N_salt_max               =   3.6395893924442E+01
(PID.TID 0000.0001) %MON obc_N_salt_min               =   3.0617685321997E+01
(PID.TID 0000.0001) %MON obc_N_salt_mean              =   3.5063772648826E+01
(PID.TID 0000.0001) %MON obc_N_salt_sd                =   3.9119752032211E-01
(PID.TID 0000.0001) %MON obc_S_salt_max               =   3.7332401996972E+01
(PID.TID 0000.0001) %MON obc_S_salt_min               =   3.4852181406128E+01
(PID.TID 0000.0001) %MON obc_S_salt_mean              =   3.5186251226266E+01
(PID.TID 0000.0001) %MON obc_S_salt_sd                =   5.1365435812598E-01
(PID.TID 0000.0001) // =======================================================
(PID.TID 0000.0001) // End OBCS MONITOR field statistics
(PID.TID 0000.0001) // =======================================================
(PID.TID 0000.0001) // =======================================================
(PID.TID 0000.0001) // Begin MONITOR EXF statistics
(PID.TID 0000.0001) // =======================================================
(PID.TID 0000.0001) %MON exf_tsnumber                 =                    13
(PID.TID 0000.0001) %MON exf_time_sec                 =   3.1200000000000E+03
(PID.TID 0000.0001) %MON exf_ustress_max              =   8.5220683068707E-01
(PID.TID 0000.0001) %MON exf_ustress_min              =  -3.8737328936201E-01
(PID.TID 0000.0001) %MON exf_ustress_mean             =   6.4169497689363E-02
(PID.TID 0000.0001) %MON exf_ustress_sd               =   1.5423954454845E-01
(PID.TID 0000.0001) %MON exf_ustress_del2             =   3.7247487921630E-07
(PID.TID 0000.0001) %MON exf_vstress_max              =   4.2435435842746E-01
(PID.TID 0000.0001) %MON exf_vstress_min              =  -5.6751850706053E-01
(PID.TID 0000.0001) %MON exf_vstress_mean             =   1.0789922563863E-02
(PID.TID 0000.0001) %MON exf_vstress_sd               =   1.0166891303186E-01
(PID.TID 0000.0001) %MON exf_vstress_del2             =   3.1708247913976E-07
(PID.TID 0000.0001) %MON exf_hflux_max                =   6.7015909630443E+02
(PID.TID 0000.0001) %MON exf_hflux_min                =  -3.1828225077395E+02
(PID.TID 0000.0001) %MON exf_hflux_mean               =   2.0087493951691E+02
(PID.TID 0000.0001) %MON exf_hflux_sd                 =   1.2133959157760E+02
(PID.TID 0000.0001) %MON exf_hflux_del2               =   9.2365027216135E-02
(PID.TID 0000.0001) %MON exf_sflux_max                =   1.6601788614424E-07
(PID.TID 0000.0001) %MON exf_sflux_min                =  -1.8089302688888E-06
(PID.TID 0000.0001) %MON exf_sflux_mean               =   6.5447881004993E-09
(PID.TID 0000.0001) %MON exf_sflux_sd                 =   1.3280054476602E-07
(PID.TID 0000.0001) %MON exf_sflux_del2               =   5.2703502584190E-11
(PID.TID 0000.0001) %MON exf_uwind_max                =   1.9736897009740E+01
(PID.TID 0000.0001) %MON exf_uwind_min                =  -1.4757545474211E+01
(PID.TID 0000.0001) %MON exf_uwind_mean               =   2.5149646413561E+00
(PID.TID 0000.0001) %MON exf_uwind_sd                 =   6.6631933614247E+00
(PID.TID 0000.0001) %MON exf_uwind_del2               =   2.8429016297919E-03
(PID.TID 0000.0001) %MON exf_vwind_max                =   1.4654114121653E+01
(PID.TID 0000.0001) %MON exf_vwind_min                =  -1.2840916091603E+01
(PID.TID 0000.0001) %MON exf_vwind_mean               =   8.5921515429054E-01
(PID.TID 0000.0001) %MON exf_vwind_sd                 =   5.1893102527227E+00
(PID.TID 0000.0001) %MON exf_vwind_del2               =   2.0929416465386E-03
(PID.TID 0000.0001) %MON exf_wspeed_max               =   2.0166143365657E+01
(PID.TID 0000.0001) %MON exf_wspeed_min               =   1.7007211126617E-02
(PID.TID 0000.0001) %MON exf_wspeed_mean              =   7.7152112950789E+00
(PID.TID 0000.0001) %MON exf_wspeed_sd                =   4.3434892853173E+00
(PID.TID 0000.0001) %MON exf_wspeed_del2              =   3.5298982496200E-03
(PID.TID 0000.0001) %MON exf_atemp_max                =   2.9814925941584E+02
(PID.TID 0000.0001) %MON exf_atemp_min                =   2.7421894296331E+02
(PID.TID 0000.0001) %MON exf_atemp_mean               =   2.9066173345941E+02
(PID.TID 0000.0001) %MON exf_atemp_sd                 =   3.9476444730323E+00
(PID.TID 0000.0001) %MON exf_atemp_del2               =   6.8342147419052E-03
(PID.TID 0000.0001) %MON exf_aqh_max                  =   1.6731653621973E-02
(PID.TID 0000.0001) %MON exf_aqh_min                  =   2.7102318615487E-03
(PID.TID 0000.0001) %MON exf_aqh_mean                 =   9.4133790495521E-03
(PID.TID 0000.0001) %MON exf_aqh_sd                   =   2.8788259952489E-03
(PID.TID 0000.0001) %MON exf_aqh_del2                 =   3.7473943409781E-06
(PID.TID 0000.0001) %MON exf_lwflux_max               =   1.6674701287440E+02
(PID.TID 0000.0001) %MON exf_lwflux_min               =  -5.6069305125949E+00
(PID.TID 0000.0001) %MON exf_lwflux_mean              =   6.0675868409628E+01
(PID.TID 0000.0001) %MON exf_lwflux_sd                =   2.6576694539527E+01
(PID.TID 0000.0001) %MON exf_lwflux_del2              =   2.5476197329461E-02
(PID.TID 0000.0001) %MON exf_evap_max                 =   1.9170900262587E-07
(PID.TID 0000.0001) %MON exf_evap_min                 =  -1.0361475089341E-07
(PID.TID 0000.0001) %MON exf_evap_mean                =   4.9707297595141E-08
(PID.TID 0000.0001) %MON exf_evap_sd                  =   3.8673597297964E-08
(PID.TID 0000.0001) %MON exf_evap_del2                =   2.4907109975327E-11
(PID.TID 0000.0001) %MON exf_precip_max               =   1.9919087312383E-06
(PID.TID 0000.0001) %MON exf_precip_min               =   0.0000000000000E+00
(PID.TID 0000.0001) %MON exf_precip_mean              =   4.1574149282677E-08
(PID.TID 0000.0001) %MON exf_precip_sd                =   1.3847351569000E-07
(PID.TID 0000.0001) %MON exf_precip_del2              =   5.7913503561978E-11
(PID.TID 0000.0001) %MON exf_swflux_max               =   0.0000000000000E+00
(PID.TID 0000.0001) %MON exf_swflux_min               =   0.0000000000000E+00
(PID.TID 0000.0001) %MON exf_swflux_mean              =   0.0000000000000E+00
(PID.TID 0000.0001) %MON exf_swflux_sd                =   0.0000000000000E+00
(PID.TID 0000.0001) %MON exf_swflux_del2              =   0.0000000000000E+00
(PID.TID 0000.0001) %MON exf_swdown_max               =   0.0000000000000E+00
(PID.TID 0000.0001) %MON exf_swdown_min               =   0.0000000000000E+00
(PID.TID 0000.0001) %MON exf_swdown_mean              =   0.0000000000000E+00
(PID.TID 0000.0001) %MON exf_swdown_sd                =   0.0000000000000E+00
(PID.TID 0000.0001) %MON exf_swdown_del2              =   0.0000000000000E+00
(PID.TID 0000.0001) %MON exf_lwdown_max               =   4.1840604284666E+02
(PID.TID 0000.0001) %MON exf_lwdown_min               =   2.2445126639892E+02
(PID.TID 0000.0001) %MON exf_lwdown_mean              =   3.4969541476356E+02
(PID.TID 0000.0001) %MON exf_lwdown_sd                =   3.1528857114962E+01
(PID.TID 0000.0001) %MON exf_lwdown_del2              =   1.3543856535495E-01
(PID.TID 0000.0001) %MON exf_apressure_max            =   1.0281513960403E+05
(PID.TID 0000.0001) %MON exf_apressure_min            =   1.0001593693690E+05
(PID.TID 0000.0001) %MON exf_apressure_mean           =   1.0216917372510E+05
(PID.TID 0000.0001) %MON exf_apressure_sd             =   4.9887080131981E+02
(PID.TID 0000.0001) %MON exf_apressure_del2           =   3.9521997632661E+01
(PID.TID 0000.0001) %MON exf_runoff_max               =   4.4374791284855E-08
(PID.TID 0000.0001) %MON exf_runoff_min               =   0.0000000000000E+00
(PID.TID 0000.0001) %MON exf_runoff_mean              =   1.5883602119650E-09
(PID.TID 0000.0001) %MON exf_runoff_sd                =   5.3902197283252E-09
(PID.TID 0000.0001) %MON exf_runoff_del2              =   2.2191549266395E-12
(PID.TID 0000.0001) // =======================================================
(PID.TID 0000.0001) // End MONITOR EXF statistics
(PID.TID 0000.0001) // =======================================================
 cg2d: Sum(rhs),rhsMax =   6.92186683594149E+02  5.45502443914701E-02
(PID.TID 0000.0001)      cg2d_init_res =   5.28326065028963E-01
(PID.TID 0000.0001)      cg2d_iters(min,last) =      -1     305
(PID.TID 0000.0001)      cg2d_last_res =   6.82874011613941E-12
(PID.TID 0000.0001) // =======================================================
(PID.TID 0000.0001) // Begin MONITOR dynamic field statistics
(PID.TID 0000.0001) // =======================================================
(PID.TID 0000.0001) %MON time_tsnumber                =                    14
(PID.TID 0000.0001) %MON time_secondsf                =   3.3600000000000E+03
(PID.TID 0000.0001) %MON dynstat_eta_max              =   8.0816013573687E-01
(PID.TID 0000.0001) %MON dynstat_eta_min              =  -9.0738655725050E-01
(PID.TID 0000.0001) %MON dynstat_eta_mean             =  -2.3539913404232E-02
(PID.TID 0000.0001) %MON dynstat_eta_sd               =   1.7186835791580E-01
(PID.TID 0000.0001) %MON dynstat_eta_del2             =   1.2434761883534E-06
(PID.TID 0000.0001) %MON dynstat_uvel_max             =   7.8832733560871E-01
(PID.TID 0000.0001) %MON dynstat_uvel_min             =  -3.4673130967082E-01
(PID.TID 0000.0001) %MON dynstat_uvel_mean            =  -2.8992631953541E-03
(PID.TID 0000.0001) %MON dynstat_uvel_sd              =   1.7167579568795E-02
(PID.TID 0000.0001) %MON dynstat_uvel_del2            =   2.1055952510046E-07
(PID.TID 0000.0001) %MON dynstat_vvel_max             =   8.6918605004792E-01
(PID.TID 0000.0001) %MON dynstat_vvel_min             =  -6.3950747573528E-01
(PID.TID 0000.0001) %MON dynstat_vvel_mean            =  -6.6967920852081E-03
(PID.TID 0000.0001) %MON dynstat_vvel_sd              =   1.6615923173635E-02
(PID.TID 0000.0001) %MON dynstat_vvel_del2            =   1.7460376013087E-07
(PID.TID 0000.0001) %MON dynstat_wvel_max             =   6.8098773377209E-03
(PID.TID 0000.0001) %MON dynstat_wvel_min             =  -5.5872828003304E-03
(PID.TID 0000.0001) %MON dynstat_wvel_mean            =  -1.4209825746384E-06
(PID.TID 0000.0001) %MON dynstat_wvel_sd              =   1.3391413436362E-04
(PID.TID 0000.0001) %MON dynstat_wvel_del2            =   1.3936433806959E-08
(PID.TID 0000.0001) %MON dynstat_theta_max            =   2.5562503259726E+01
(PID.TID 0000.0001) %MON dynstat_theta_min            =   1.4441539591806E+00
(PID.TID 0000.0001) %MON dynstat_theta_mean           =   5.5933767603554E+00
(PID.TID 0000.0001) %MON dynstat_theta_sd             =   4.7972405258507E+00
(PID.TID 0000.0001) %MON dynstat_theta_del2           =   1.5521305477395E-06
(PID.TID 0000.0001) %MON dynstat_salt_max             =   3.8089995396363E+01
(PID.TID 0000.0001) %MON dynstat_salt_min             =   3.0535035995920E+01
(PID.TID 0000.0001) %MON dynstat_salt_mean            =   3.5189813120159E+01
(PID.TID 0000.0001) %MON dynstat_salt_sd              =   4.6942424477922E-01
(PID.TID 0000.0001) %MON dynstat_salt_del2            =   3.1875166768140E-07
(PID.TID 0000.0001) %MON forcing_qnet_max             =   6.7684533903597E+02
(PID.TID 0000.0001) %MON forcing_qnet_min             =  -3.2321794362951E+02
(PID.TID 0000.0001) %MON forcing_qnet_mean            =   2.0198909406622E+02
(PID.TID 0000.0001) %MON forcing_qnet_sd              =   1.2252926887622E+02
(PID.TID 0000.0001) %MON forcing_qnet_del2            =   9.9970391749889E-04
(PID.TID 0000.0001) %MON forcing_qsw_max              =   0.0000000000000E+00
(PID.TID 0000.0001) %MON forcing_qsw_min              =   0.0000000000000E+00
(PID.TID 0000.0001) %MON forcing_qsw_mean             =   0.0000000000000E+00
(PID.TID 0000.0001) %MON forcing_qsw_sd               =   0.0000000000000E+00
(PID.TID 0000.0001) %MON forcing_qsw_del2             =   0.0000000000000E+00
(PID.TID 0000.0001) %MON forcing_empmr_max            =   1.6601788614424E-04
(PID.TID 0000.0001) %MON forcing_empmr_min            =  -1.8089302688888E-03
(PID.TID 0000.0001) %MON forcing_empmr_mean           =   6.5447881004993E-06
(PID.TID 0000.0001) %MON forcing_empmr_sd             =   1.3280054476602E-04
(PID.TID 0000.0001) %MON forcing_empmr_del2           =   2.6453173252198E-09
(PID.TID 0000.0001) %MON forcing_fu_max               =   8.5212817121488E-01
(PID.TID 0000.0001) %MON forcing_fu_min               =  -3.8735220350035E-01
(PID.TID 0000.0001) %MON forcing_fu_mean              =   6.4229506826032E-02
(PID.TID 0000.0001) %MON forcing_fu_sd                =   1.5429719457482E-01
(PID.TID 0000.0001) %MON forcing_fu_del2              =   3.5266351504977E-07
(PID.TID 0000.0001) %MON forcing_fv_max               =   4.2430856224720E-01
(PID.TID 0000.0001) %MON forcing_fv_min               =  -5.7222949690675E-01
(PID.TID 0000.0001) %MON forcing_fv_mean              =   1.0774021653439E-02
(PID.TID 0000.0001) %MON forcing_fv_sd                =   1.0179927609622E-01
(PID.TID 0000.0001) %MON forcing_fv_del2              =   2.9112537420485E-07
(PID.TID 0000.0001) %MON trAdv_CFL_u_max              =   4.7028974359619E-02
(PID.TID 0000.0001) %MON trAdv_CFL_v_max              =   5.5096455042568E-02
(PID.TID 0000.0001) %MON trAdv_CFL_w_max              =   2.4113123236482E-01
(PID.TID 0000.0001) %MON advcfl_uvel_max              =   4.7028973885775E-02
(PID.TID 0000.0001) %MON advcfl_vvel_max              =   5.5115707078329E-02
(PID.TID 0000.0001) %MON advcfl_wvel_max              =   2.4113123236482E-01
(PID.TID 0000.0001) %MON advcfl_W_hf_max              =   2.4113123236482E-01
(PID.TID 0000.0001) %MON pe_b_mean                    =  -5.4400611814068E-04
(PID.TID 0000.0001) %MON ke_max                       =   4.5665091224400E-01
(PID.TID 0000.0001) %MON ke_mean                      =   3.0965132975829E-04
(PID.TID 0000.0001) %MON ke_vol                       =   4.5818599895265E+16
(PID.TID 0000.0001) %MON vort_r_min                   =  -3.2969248465190E-04
(PID.TID 0000.0001) %MON vort_r_max                   =   3.7175018109350E-04
(PID.TID 0000.0001) %MON vort_a_mean                  =   8.2147592613778E-05
(PID.TID 0000.0001) %MON vort_a_sd                    =   9.7084942375047E-06
(PID.TID 0000.0001) %MON vort_p_mean                  =   8.4848812920823E-05
(PID.TID 0000.0001) %MON vort_p_sd                    =   3.5007193167378E-05
(PID.TID 0000.0001) %MON surfExpan_theta_mean         =   6.4862701956184E-05
(PID.TID 0000.0001) %MON surfExpan_salt_mean          =   1.2075350272157E-05
(PID.TID 0000.0001) // =======================================================
(PID.TID 0000.0001) // End MONITOR dynamic field statistics
(PID.TID 0000.0001) // =======================================================
(PID.TID 0000.0001) // =======================================================
(PID.TID 0000.0001) // Begin OBCS MONITOR field statistics
(PID.TID 0000.0001) // =======================================================
(PID.TID 0000.0001) %MON obc_E_uVel_max               =   1.4276619737490E-01
(PID.TID 0000.0001) %MON obc_E_uVel_min               =  -3.2372526314353E-02
(PID.TID 0000.0001) %MON obc_E_uVel_mean              =   7.1685639565754E-02
(PID.TID 0000.0001) %MON obc_E_uVel_sd                =   4.2584073772647E-02
(PID.TID 0000.0001) %MON obc_E_uVel_Int               =   6.8495051982292E+05
(PID.TID 0000.0001) %MON obc_N_vVel_max               =   7.6077642342633E-02
(PID.TID 0000.0001) %MON obc_N_vVel_min               =  -5.8884716366201E-01
(PID.TID 0000.0001) %MON obc_N_vVel_mean              =  -7.1344780851604E-03
(PID.TID 0000.0001) %MON obc_N_vVel_sd                =   1.6804973307324E-02
(PID.TID 0000.0001) %MON obc_N_vVel_Int               =  -1.0213065638615E+08
(PID.TID 0000.0001) %MON obc_S_vVel_max               =   6.4904532569197E-01
(PID.TID 0000.0001) %MON obc_S_vVel_min               =  -1.0645481987697E-01
(PID.TID 0000.0001) %MON obc_S_vVel_mean              =  -3.3245057599917E-03
(PID.TID 0000.0001) %MON obc_S_vVel_sd                =   1.9917612826478E-02
(PID.TID 0000.0001) %MON obc_S_vVel_Int               =  -1.0120759531348E+08
(PID.TID 0000.0001) %MON obc_E_theta_max              =   1.7031576156616E+01
(PID.TID 0000.0001) %MON obc_E_theta_min              =   1.2988679885864E+01
(PID.TID 0000.0001) %MON obc_E_theta_mean             =   1.5361316191092E+01
(PID.TID 0000.0001) %MON obc_E_theta_sd               =   1.5938527426439E+00
(PID.TID 0000.0001) %MON obc_N_theta_max              =   1.6146089620501E+01
(PID.TID 0000.0001) %MON obc_N_theta_min              =   1.6872139863383E+00
(PID.TID 0000.0001) %MON obc_N_theta_mean             =   5.2225797713462E+00
(PID.TID 0000.0001) %MON obc_N_theta_sd               =   3.6303701039818E+00
(PID.TID 0000.0001) %MON obc_S_theta_max              =   2.5392389509152E+01
(PID.TID 0000.0001) %MON obc_S_theta_min              =   1.5161807578801E+00
(PID.TID 0000.0001) %MON obc_S_theta_mean             =   5.4082400175395E+00
(PID.TID 0000.0001) %MON obc_S_theta_sd               =   5.1183045009446E+00
(PID.TID 0000.0001) %MON obc_E_salt_max               =   3.8136505126953E+01
(PID.TID 0000.0001) %MON obc_E_salt_min               =   3.5754806518555E+01
(PID.TID 0000.0001) %MON obc_E_salt_mean              =   3.6401586390596E+01
(PID.TID 0000.0001) %MON obc_E_salt_sd                =   4.3532669310507E-01
(PID.TID 0000.0001) %MON obc_N_salt_max               =   3.6395895267898E+01
(PID.TID 0000.0001) %MON obc_N_salt_min               =   3.0617701885599E+01
(PID.TID 0000.0001) %MON obc_N_salt_mean              =   3.5063772719178E+01
(PID.TID 0000.0001) %MON obc_N_salt_sd                =   3.9119714850771E-01
(PID.TID 0000.0001) %MON obc_S_salt_max               =   3.7332392617847E+01
(PID.TID 0000.0001) %MON obc_S_salt_min               =   3.4852181404387E+01
(PID.TID 0000.0001) %MON obc_S_salt_mean              =   3.5186251266762E+01
(PID.TID 0000.0001) %MON obc_S_salt_sd                =   5.1365444425154E-01
(PID.TID 0000.0001) // =======================================================
(PID.TID 0000.0001) // End OBCS MONITOR field statistics
(PID.TID 0000.0001) // =======================================================
(PID.TID 0000.0001) // =======================================================
(PID.TID 0000.0001) // Begin MONITOR EXF statistics
(PID.TID 0000.0001) // =======================================================
(PID.TID 0000.0001) %MON exf_tsnumber                 =                    14
(PID.TID 0000.0001) %MON exf_time_sec                 =   3.3600000000000E+03
(PID.TID 0000.0001) %MON exf_ustress_max              =   8.7048276198865E-01
(PID.TID 0000.0001) %MON exf_ustress_min              =  -3.8546276401994E-01
(PID.TID 0000.0001) %MON exf_ustress_mean             =   6.4411054552651E-02
(PID.TID 0000.0001) %MON exf_ustress_sd               =   1.5466291376718E-01
(PID.TID 0000.0001) %MON exf_ustress_del2             =   3.9436972586296E-07
(PID.TID 0000.0001) %MON exf_vstress_max              =   4.2957090713322E-01
(PID.TID 0000.0001) %MON exf_vstress_min              =  -5.6942664430631E-01
(PID.TID 0000.0001) %MON exf_vstress_mean             =   1.0854431262027E-02
(PID.TID 0000.0001) %MON exf_vstress_sd               =   1.0205828623999E-01
(PID.TID 0000.0001) %MON exf_vstress_del2             =   3.3896540375350E-07
(PID.TID 0000.0001) %MON exf_hflux_max                =   6.6844942395547E+02
(PID.TID 0000.0001) %MON exf_hflux_min                =  -3.2071646673958E+02
(PID.TID 0000.0001) %MON exf_hflux_mean               =   2.0100619286140E+02
(PID.TID 0000.0001) %MON exf_hflux_sd                 =   1.2151002577840E+02
(PID.TID 0000.0001) %MON exf_hflux_del2               =   9.2455429582362E-02
(PID.TID 0000.0001) %MON exf_sflux_max                =   1.6546703450596E-07
(PID.TID 0000.0001) %MON exf_sflux_min                =  -1.8277829006081E-06
(PID.TID 0000.0001) %MON exf_sflux_mean               =   6.3430092286356E-09
(PID.TID 0000.0001) %MON exf_sflux_sd                 =   1.3347108909920E-07
(PID.TID 0000.0001) %MON exf_sflux_del2               =   5.2870442985206E-11
(PID.TID 0000.0001) %MON exf_uwind_max                =   1.9887127912784E+01
(PID.TID 0000.0001) %MON exf_uwind_min                =  -1.4735798289055E+01
(PID.TID 0000.0001) %MON exf_uwind_mean               =   2.5164270022340E+00
(PID.TID 0000.0001) %MON exf_uwind_sd                 =   6.6666644694953E+00
(PID.TID 0000.0001) %MON exf_uwind_del2               =   2.8443882357375E-03
(PID.TID 0000.0001) %MON exf_vwind_max                =   1.4746049149619E+01
(PID.TID 0000.0001) %MON exf_vwind_min                =  -1.2870753136906E+01
(PID.TID 0000.0001) %MON exf_vwind_mean               =   8.6082614559984E-01
(PID.TID 0000.0001) %MON exf_vwind_sd                 =   5.1958078078025E+00
(PID.TID 0000.0001) %MON exf_vwind_del2               =   2.0959613293769E-03
(PID.TID 0000.0001) %MON exf_wspeed_max               =   2.0165798448946E+01
(PID.TID 0000.0001) %MON exf_wspeed_min               =   6.6138981668975E-03
(PID.TID 0000.0001) %MON exf_wspeed_mean              =   7.7195694850685E+00
(PID.TID 0000.0001) %MON exf_wspeed_sd                =   4.3500008505943E+00
(PID.TID 0000.0001) %MON exf_wspeed_del2              =   3.5328671948897E-03
(PID.TID 0000.0001) %MON exf_atemp_max                =   2.9814706212742E+02
(PID.TID 0000.0001) %MON exf_atemp_min                =   2.7419334175467E+02
(PID.TID 0000.0001) %MON exf_atemp_mean               =   2.9065861257189E+02
(PID.TID 0000.0001) %MON exf_atemp_sd                 =   3.9488165305861E+00
(PID.TID 0000.0001) %MON exf_atemp_del2               =   6.8331001696767E-03
(PID.TID 0000.0001) %MON exf_aqh_max                  =   1.6724667321099E-02
(PID.TID 0000.0001) %MON exf_aqh_min                  =   2.7079371637848E-03
(PID.TID 0000.0001) %MON exf_aqh_mean                 =   9.4121906985985E-03
(PID.TID 0000.0001) %MON exf_aqh_sd                   =   2.8803894455889E-03
(PID.TID 0000.0001) %MON exf_aqh_del2                 =   3.7470570261703E-06
(PID.TID 0000.0001) %MON exf_lwflux_max               =   1.6705815946781E+02
(PID.TID 0000.0001) %MON exf_lwflux_min               =  -5.0971355721124E+00
(PID.TID 0000.0001) %MON exf_lwflux_mean              =   6.0659726834449E+01
(PID.TID 0000.0001) %MON exf_lwflux_sd                =   2.6573948294349E+01
(PID.TID 0000.0001) %MON exf_lwflux_del2              =   2.5468100989072E-02
(PID.TID 0000.0001) %MON exf_evap_max                 =   1.9199828481868E-07
(PID.TID 0000.0001) %MON exf_evap_min                 =  -1.0438021552286E-07
(PID.TID 0000.0001) %MON exf_evap_mean                =   4.9748656873541E-08
(PID.TID 0000.0001) %MON exf_evap_sd                  =   3.8715683680648E-08
(PID.TID 0000.0001) %MON exf_evap_del2                =   2.4933686181367E-11
(PID.TID 0000.0001) %MON exf_precip_max               =   2.0113592581988E-06
(PID.TID 0000.0001) %MON exf_precip_min               =   0.0000000000000E+00
(PID.TID 0000.0001) %MON exf_precip_mean              =   4.1817287432940E-08
(PID.TID 0000.0001) %MON exf_precip_sd                =   1.3924294561003E-07
(PID.TID 0000.0001) %MON exf_precip_del2              =   5.8141655755700E-11
(PID.TID 0000.0001) %MON exf_swflux_max               =   0.0000000000000E+00
(PID.TID 0000.0001) %MON exf_swflux_min               =   0.0000000000000E+00
(PID.TID 0000.0001) %MON exf_swflux_mean              =   0.0000000000000E+00
(PID.TID 0000.0001) %MON exf_swflux_sd                =   0.0000000000000E+00
(PID.TID 0000.0001) %MON exf_swflux_del2              =   0.0000000000000E+00
(PID.TID 0000.0001) %MON exf_swdown_max               =   0.0000000000000E+00
(PID.TID 0000.0001) %MON exf_swdown_min               =   0.0000000000000E+00
(PID.TID 0000.0001) %MON exf_swdown_mean              =   0.0000000000000E+00
(PID.TID 0000.0001) %MON exf_swdown_sd                =   0.0000000000000E+00
(PID.TID 0000.0001) %MON exf_swdown_del2              =   0.0000000000000E+00
(PID.TID 0000.0001) %MON exf_lwdown_max               =   4.1843716545593E+02
(PID.TID 0000.0001) %MON exf_lwdown_min               =   2.2422663445087E+02
(PID.TID 0000.0001) %MON exf_lwdown_mean              =   3.4970991997205E+02
(PID.TID 0000.0001) %MON exf_lwdown_sd                =   3.1487554444728E+01
(PID.TID 0000.0001) %MON exf_lwdown_del2              =   1.3544398873713E-01
(PID.TID 0000.0001) %MON exf_apressure_max            =   1.0281834697520E+05
(PID.TID 0000.0001) %MON exf_apressure_min            =   1.0001465908832E+05
(PID.TID 0000.0001) %MON exf_apressure_mean           =   1.0216995109605E+05
(PID.TID 0000.0001) %MON exf_apressure_sd             =   4.9898652114561E+02
(PID.TID 0000.0001) %MON exf_apressure_del2           =   3.9522305553705E+01
(PID.TID 0000.0001) %MON exf_runoff_max               =   4.4374791284855E-08
(PID.TID 0000.0001) %MON exf_runoff_min               =   0.0000000000000E+00
(PID.TID 0000.0001) %MON exf_runoff_mean              =   1.5883602119650E-09
(PID.TID 0000.0001) %MON exf_runoff_sd                =   5.3902197283252E-09
(PID.TID 0000.0001) %MON exf_runoff_del2              =   2.2191549266395E-12
(PID.TID 0000.0001) // =======================================================
(PID.TID 0000.0001) // End MONITOR EXF statistics
(PID.TID 0000.0001) // =======================================================
 cg2d: Sum(rhs),rhsMax =   6.84250685808855E+02  5.50753688904846E-02
(PID.TID 0000.0001)      cg2d_init_res =   5.28896866091919E-01
(PID.TID 0000.0001)      cg2d_iters(min,last) =      -1     304
(PID.TID 0000.0001)      cg2d_last_res =   6.91676061502427E-12
(PID.TID 0000.0001) // =======================================================
(PID.TID 0000.0001) // Begin MONITOR dynamic field statistics
(PID.TID 0000.0001) // =======================================================
(PID.TID 0000.0001) %MON time_tsnumber                =                    15
(PID.TID 0000.0001) %MON time_secondsf                =   3.6000000000000E+03
(PID.TID 0000.0001) %MON dynstat_eta_max              =   7.8666428613597E-01
(PID.TID 0000.0001) %MON dynstat_eta_min              =  -9.5651941314389E-01
(PID.TID 0000.0001) %MON dynstat_eta_mean             =  -2.3270025662861E-02
(PID.TID 0000.0001) %MON dynstat_eta_sd               =   1.7560320847388E-01
(PID.TID 0000.0001) %MON dynstat_eta_del2             =   1.2678232445533E-06
(PID.TID 0000.0001) %MON dynstat_uvel_max             =   7.4593429620286E-01
(PID.TID 0000.0001) %MON dynstat_uvel_min             =  -3.5316618711719E-01
(PID.TID 0000.0001) %MON dynstat_uvel_mean            =  -3.1637188853429E-03
(PID.TID 0000.0001) %MON dynstat_uvel_sd              =   1.7163609331779E-02
(PID.TID 0000.0001) %MON dynstat_uvel_del2            =   2.1436552538337E-07
(PID.TID 0000.0001) %MON dynstat_vvel_max             =   8.6091948100466E-01
(PID.TID 0000.0001) %MON dynstat_vvel_min             =  -6.3741239621698E-01
(PID.TID 0000.0001) %MON dynstat_vvel_mean            =  -6.8801874853999E-03
(PID.TID 0000.0001) %MON dynstat_vvel_sd              =   1.6688909091589E-02
(PID.TID 0000.0001) %MON dynstat_vvel_del2            =   1.7879170940269E-07
(PID.TID 0000.0001) %MON dynstat_wvel_max             =   6.8904085095511E-03
(PID.TID 0000.0001) %MON dynstat_wvel_min             =  -5.4647294623170E-03
(PID.TID 0000.0001) %MON dynstat_wvel_mean            =  -7.4492019428337E-07
(PID.TID 0000.0001) %MON dynstat_wvel_sd              =   1.3753704248033E-04
(PID.TID 0000.0001) %MON dynstat_wvel_del2            =   1.4172936780854E-08
(PID.TID 0000.0001) %MON dynstat_theta_max            =   2.5561933161390E+01
(PID.TID 0000.0001) %MON dynstat_theta_min            =   1.4441539630572E+00
(PID.TID 0000.0001) %MON dynstat_theta_mean           =   5.5933696430030E+00
(PID.TID 0000.0001) %MON dynstat_theta_sd             =   4.7972214928547E+00
(PID.TID 0000.0001) %MON dynstat_theta_del2           =   1.5597485143686E-06
(PID.TID 0000.0001) %MON dynstat_salt_max             =   3.8089324106231E+01
(PID.TID 0000.0001) %MON dynstat_salt_min             =   3.0535370888575E+01
(PID.TID 0000.0001) %MON dynstat_salt_mean            =   3.5189812255359E+01
(PID.TID 0000.0001) %MON dynstat_salt_sd              =   4.6942370517282E-01
(PID.TID 0000.0001) %MON dynstat_salt_del2            =   3.2570605496048E-07
(PID.TID 0000.0001) %MON forcing_qnet_max             =   6.7478589784971E+02
(PID.TID 0000.0001) %MON forcing_qnet_min             =  -3.2567474246881E+02
(PID.TID 0000.0001) %MON forcing_qnet_mean            =   2.0210782021003E+02
(PID.TID 0000.0001) %MON forcing_qnet_sd              =   1.2268453548305E+02
(PID.TID 0000.0001) %MON forcing_qnet_del2            =   1.0148430370992E-03
(PID.TID 0000.0001) %MON forcing_qsw_max              =   0.0000000000000E+00
(PID.TID 0000.0001) %MON forcing_qsw_min              =   0.0000000000000E+00
(PID.TID 0000.0001) %MON forcing_qsw_mean             =   0.0000000000000E+00
(PID.TID 0000.0001) %MON forcing_qsw_sd               =   0.0000000000000E+00
(PID.TID 0000.0001) %MON forcing_qsw_del2             =   0.0000000000000E+00
(PID.TID 0000.0001) %MON forcing_empmr_max            =   1.6546703450596E-04
(PID.TID 0000.0001) %MON forcing_empmr_min            =  -1.8277829006081E-03
(PID.TID 0000.0001) %MON forcing_empmr_mean           =   6.3430092286356E-06
(PID.TID 0000.0001) %MON forcing_empmr_sd             =   1.3347108909920E-04
(PID.TID 0000.0001) %MON forcing_empmr_del2           =   2.6008167167493E-09
(PID.TID 0000.0001) %MON forcing_fu_max               =   8.7044073230131E-01
(PID.TID 0000.0001) %MON forcing_fu_min               =  -3.8538307155044E-01
(PID.TID 0000.0001) %MON forcing_fu_mean              =   6.4471616194877E-02
(PID.TID 0000.0001) %MON forcing_fu_sd                =   1.5472069160098E-01
(PID.TID 0000.0001) %MON forcing_fu_del2              =   3.7436967605867E-07
(PID.TID 0000.0001) %MON forcing_fv_max               =   4.2951470376229E-01
(PID.TID 0000.0001) %MON forcing_fv_min               =  -5.7428216138321E-01
(PID.TID 0000.0001) %MON forcing_fv_mean              =   1.0838939891016E-02
(PID.TID 0000.0001) %MON forcing_fv_sd                =   1.0218865626515E-01
(PID.TID 0000.0001) %MON forcing_fv_del2              =   3.1248401615675E-07
(PID.TID 0000.0001) %MON trAdv_CFL_u_max              =   4.6890864127128E-02
(PID.TID 0000.0001) %MON trAdv_CFL_v_max              =   5.4572449106644E-02
(PID.TID 0000.0001) %MON trAdv_CFL_w_max              =   2.3913510634961E-01
(PID.TID 0000.0001) %MON advcfl_uvel_max              =   4.6890863531649E-02
(PID.TID 0000.0001) %MON advcfl_vvel_max              =   5.4591518042040E-02
(PID.TID 0000.0001) %MON advcfl_wvel_max              =   2.3796172506232E-01
(PID.TID 0000.0001) %MON advcfl_W_hf_max              =   2.3913510634961E-01
(PID.TID 0000.0001) %MON pe_b_mean                    =  -5.3582235874242E-04
(PID.TID 0000.0001) %MON ke_max                       =   4.5325841221020E-01
(PID.TID 0000.0001) %MON ke_mean                      =   3.1282843544293E-04
(PID.TID 0000.0001) %MON ke_vol                       =   4.5818599895265E+16
(PID.TID 0000.0001) %MON vort_r_min                   =  -3.2988957040176E-04
(PID.TID 0000.0001) %MON vort_r_max                   =   3.6312054132216E-04
(PID.TID 0000.0001) %MON vort_a_mean                  =   8.2147592924826E-05
(PID.TID 0000.0001) %MON vort_a_sd                    =   9.7086992644648E-06
(PID.TID 0000.0001) %MON vort_p_mean                  =   8.4848813242099E-05
(PID.TID 0000.0001) %MON vort_p_sd                    =   3.5008400525858E-05
(PID.TID 0000.0001) %MON surfExpan_theta_mean         =   8.8465158082633E-05
(PID.TID 0000.0001) %MON surfExpan_salt_mean          =   5.2099384203865E-05
(PID.TID 0000.0001) // =======================================================
(PID.TID 0000.0001) // End MONITOR dynamic field statistics
(PID.TID 0000.0001) // =======================================================
(PID.TID 0000.0001) // =======================================================
(PID.TID 0000.0001) // Begin OBCS MONITOR field statistics
(PID.TID 0000.0001) // =======================================================
(PID.TID 0000.0001) %MON obc_E_uVel_max               =   1.3054362483760E-01
(PID.TID 0000.0001) %MON obc_E_uVel_min               =  -3.8529678117803E-02
(PID.TID 0000.0001) %MON obc_E_uVel_mean              =   6.6183693742604E-02
(PID.TID 0000.0001) %MON obc_E_uVel_sd                =   4.1697172270285E-02
(PID.TID 0000.0001) %MON obc_E_uVel_Int               =   6.3237987004658E+05
(PID.TID 0000.0001) %MON obc_N_vVel_max               =   8.1326987573124E-02
(PID.TID 0000.0001) %MON obc_N_vVel_min               =  -5.8392436509510E-01
(PID.TID 0000.0001) %MON obc_N_vVel_mean              =  -7.1756568170385E-03
(PID.TID 0000.0001) %MON obc_N_vVel_sd                =   1.6774260087569E-02
(PID.TID 0000.0001) %MON obc_N_vVel_Int               =  -1.0272013341105E+08
(PID.TID 0000.0001) %MON obc_S_vVel_max               =   6.4974685172075E-01
(PID.TID 0000.0001) %MON obc_S_vVel_min               =  -1.0635793728124E-01
(PID.TID 0000.0001) %MON obc_S_vVel_mean              =  -2.9359635497352E-03
(PID.TID 0000.0001) %MON obc_S_vVel_sd                =   1.9896119012237E-02
(PID.TID 0000.0001) %MON obc_S_vVel_Int               =  -8.9379243787945E+07
(PID.TID 0000.0001) %MON obc_E_theta_max              =   1.7031576156616E+01
(PID.TID 0000.0001) %MON obc_E_theta_min              =   1.2988679885864E+01
(PID.TID 0000.0001) %MON obc_E_theta_mean             =   1.5361316191092E+01
(PID.TID 0000.0001) %MON obc_E_theta_sd               =   1.5938527426439E+00
(PID.TID 0000.0001) %MON obc_N_theta_max              =   1.6146095211909E+01
(PID.TID 0000.0001) %MON obc_N_theta_min              =   1.6871453121376E+00
(PID.TID 0000.0001) %MON obc_N_theta_mean             =   5.2225778450576E+00
(PID.TID 0000.0001) %MON obc_N_theta_sd               =   3.6303663195535E+00
(PID.TID 0000.0001) %MON obc_S_theta_max              =   2.5392377231971E+01
(PID.TID 0000.0001) %MON obc_S_theta_min              =   1.5161807361651E+00
(PID.TID 0000.0001) %MON obc_S_theta_mean             =   5.4082390963916E+00
(PID.TID 0000.0001) %MON obc_S_theta_sd               =   5.1183013056641E+00
(PID.TID 0000.0001) %MON obc_E_salt_max               =   3.8136505126953E+01
(PID.TID 0000.0001) %MON obc_E_salt_min               =   3.5754806518555E+01
(PID.TID 0000.0001) %MON obc_E_salt_mean              =   3.6401586390596E+01
(PID.TID 0000.0001) %MON obc_E_salt_sd                =   4.3532669310507E-01
(PID.TID 0000.0001) %MON obc_N_salt_max               =   3.6395896611354E+01
(PID.TID 0000.0001) %MON obc_N_salt_min               =   3.0617718449200E+01
(PID.TID 0000.0001) %MON obc_N_salt_mean              =   3.5063772789531E+01
(PID.TID 0000.0001) %MON obc_N_salt_sd                =   3.9119677671649E-01
(PID.TID 0000.0001) %MON obc_S_salt_max               =   3.7332383238723E+01
(PID.TID 0000.0001) %MON obc_S_salt_min               =   3.4852181402646E+01
(PID.TID 0000.0001) %MON obc_S_salt_mean              =   3.5186251307258E+01
(PID.TID 0000.0001) %MON obc_S_salt_sd                =   5.1365453037789E-01
(PID.TID 0000.0001) // =======================================================
(PID.TID 0000.0001) // End OBCS MONITOR field statistics
(PID.TID 0000.0001) // =======================================================
 Computing Diagnostic #     23  ETAN         Counter:      15   Parms: SM      M1      
 Computing Diagnostic #     80  oceTAUX      Counter:      15   Parms: UU      U1      
           Vector  Mate for  oceTAUX      Diagnostic #     81  oceTAUY  exists 
 Computing Diagnostic #     81  oceTAUY      Counter:      15   Parms: VV      U1      
           Vector  Mate for  oceTAUY      Diagnostic #     80  oceTAUX  exists 
 Computing Diagnostic #    185  EXFuwind     Counter:      15   Parms: UM      U1      
 Computing Diagnostic #    186  EXFvwind     Counter:      15   Parms: VM      U1      
 Computing Diagnostic #     26  THETA        Counter:      15   Parms: SMR     MR      
 Computing Diagnostic #     27  SALT         Counter:      15   Parms: SMR     MR      
 Computing Diagnostic #     30  UVEL         Counter:      15   Parms: UUR     MR      
           Vector  Mate for  UVEL         Diagnostic #     31  VVEL     exists 
 Computing Diagnostic #     31  VVEL         Counter:      15   Parms: VVR     MR      
           Vector  Mate for  VVEL         Diagnostic #     30  UVEL     exists 
 Computing Diagnostic #     32  WVEL         Counter:      15   Parms: WM      LR      
 Computing Diagnostic #     36  UVELSQ       Counter:      15   Parms: UURP    MR      
           Vector  Mate for  UVELSQ       Diagnostic #     37  VVELSQ   exists 
 Computing Diagnostic #     37  VVELSQ       Counter:      15   Parms: VVRP    MR      
           Vector  Mate for  VVELSQ       Diagnostic #     36  UVELSQ   exists 
 Computing Diagnostic #     52  WTHMASS      Counter:      15   Parms: WM      LR      
 Computing Diagnostic #     55  WSLTMASS     Counter:      15   Parms: WM      LR      
(PID.TID 0000.0001) %CHECKPOINT        15 ckptA
(PID.TID 0000.0001)   Seconds in section "ALL                    [THE_MODEL_MAIN]":
(PID.TID 0000.0001)           User time:   60.4754282236099
(PID.TID 0000.0001)         System time:  0.000000000000000E+000
(PID.TID 0000.0001)     Wall clock time:   69.5419888496399
(PID.TID 0000.0001)          No. starts:           1
(PID.TID 0000.0001)           No. stops:           1
(PID.TID 0000.0001)   Seconds in section "INITIALISE_FIXED       [THE_MODEL_MAIN]":
(PID.TID 0000.0001)           User time:   28.0305995941162
(PID.TID 0000.0001)         System time:  0.000000000000000E+000
(PID.TID 0000.0001)     Wall clock time:   29.4674408435822
(PID.TID 0000.0001)          No. starts:           1
(PID.TID 0000.0001)           No. stops:           1
(PID.TID 0000.0001)   Seconds in section "THE_MAIN_LOOP          [THE_MODEL_MAIN]":
(PID.TID 0000.0001)           User time:   32.4447975158691
(PID.TID 0000.0001)         System time:  0.000000000000000E+000
(PID.TID 0000.0001)     Wall clock time:   40.0745210647583
(PID.TID 0000.0001)          No. starts:           1
(PID.TID 0000.0001)           No. stops:           1
(PID.TID 0000.0001)   Seconds in section "INITIALISE_VARIA    [THE_MAIN_LOOP]":
(PID.TID 0000.0001)           User time:   3.15837478637695
(PID.TID 0000.0001)         System time:  0.000000000000000E+000
(PID.TID 0000.0001)     Wall clock time:   5.73779916763306
(PID.TID 0000.0001)          No. starts:           1
(PID.TID 0000.0001)           No. stops:           1
(PID.TID 0000.0001)   Seconds in section "MAIN LOOP           [THE_MAIN_LOOP]":
(PID.TID 0000.0001)           User time:   29.2863998413086
(PID.TID 0000.0001)         System time:  0.000000000000000E+000
(PID.TID 0000.0001)     Wall clock time:   34.3366980552673
(PID.TID 0000.0001)          No. starts:           1
(PID.TID 0000.0001)           No. stops:           1
(PID.TID 0000.0001)   Seconds in section "MAIN_DO_LOOP        [THE_MAIN_LOOP]":
(PID.TID 0000.0001)           User time:   29.2863121032715
(PID.TID 0000.0001)         System time:  0.000000000000000E+000
(PID.TID 0000.0001)     Wall clock time:   34.3365979194641
(PID.TID 0000.0001)          No. starts:          15
(PID.TID 0000.0001)           No. stops:          15
(PID.TID 0000.0001)   Seconds in section "FORWARD_STEP        [MAIN_DO_LOOP]":
(PID.TID 0000.0001)           User time:   29.2860984802246
(PID.TID 0000.0001)         System time:  0.000000000000000E+000
(PID.TID 0000.0001)     Wall clock time:   34.3363926410675
(PID.TID 0000.0001)          No. starts:          15
(PID.TID 0000.0001)           No. stops:          15
(PID.TID 0000.0001)   Seconds in section "DO_STATEVARS_DIAGS  [FORWARD_STEP]":
(PID.TID 0000.0001)           User time:  0.829269409179688
(PID.TID 0000.0001)         System time:  0.000000000000000E+000
(PID.TID 0000.0001)     Wall clock time:  0.839504957199097
(PID.TID 0000.0001)          No. starts:          45
(PID.TID 0000.0001)           No. stops:          45
(PID.TID 0000.0001)   Seconds in section "LOAD_FIELDS_DRIVER  [FORWARD_STEP]":
(PID.TID 0000.0001)           User time:  0.262920379638672
(PID.TID 0000.0001)         System time:  0.000000000000000E+000
(PID.TID 0000.0001)     Wall clock time:  0.419985771179199
(PID.TID 0000.0001)          No. starts:          15
(PID.TID 0000.0001)           No. stops:          15
(PID.TID 0000.0001)   Seconds in section "EXF_GETFORCING     [LOAD_FLDS_DRIVER]":
(PID.TID 0000.0001)           User time:  0.262348175048828
(PID.TID 0000.0001)         System time:  0.000000000000000E+000
(PID.TID 0000.0001)     Wall clock time:  0.419063568115234
(PID.TID 0000.0001)          No. starts:          15
(PID.TID 0000.0001)           No. stops:          15
(PID.TID 0000.0001)   Seconds in section "EXTERNAL_FLDS_LOAD [LOAD_FLDS_DRIVER]":
(PID.TID 0000.0001)           User time:  2.403259277343750E-004
(PID.TID 0000.0001)         System time:  0.000000000000000E+000
(PID.TID 0000.0001)     Wall clock time:  6.132125854492188E-004
(PID.TID 0000.0001)          No. starts:          15
(PID.TID 0000.0001)           No. stops:          15
(PID.TID 0000.0001)   Seconds in section "DO_ATMOSPHERIC_PHYS [FORWARD_STEP]":
(PID.TID 0000.0001)           User time:  8.773803710937500E-005
(PID.TID 0000.0001)         System time:  0.000000000000000E+000
(PID.TID 0000.0001)     Wall clock time:  9.107589721679688E-005
(PID.TID 0000.0001)          No. starts:          15
(PID.TID 0000.0001)           No. stops:          15
(PID.TID 0000.0001)   Seconds in section "DO_OCEANIC_PHYS     [FORWARD_STEP]":
(PID.TID 0000.0001)           User time:   4.31216812133789
(PID.TID 0000.0001)         System time:  0.000000000000000E+000
(PID.TID 0000.0001)     Wall clock time:   4.34042787551880
(PID.TID 0000.0001)          No. starts:          15
(PID.TID 0000.0001)           No. stops:          15
(PID.TID 0000.0001)   Seconds in section "KPP_CALC [DO_OCEANIC_PHYS]":
(PID.TID 0000.0001)           User time:   3.64863967895508
(PID.TID 0000.0001)         System time:  0.000000000000000E+000
(PID.TID 0000.0001)     Wall clock time:   3.66604518890381
(PID.TID 0000.0001)          No. starts:         150
(PID.TID 0000.0001)           No. stops:         150
(PID.TID 0000.0001)   Seconds in section "DYNAMICS            [FORWARD_STEP]":
(PID.TID 0000.0001)           User time:   4.16396331787109
(PID.TID 0000.0001)         System time:  0.000000000000000E+000
(PID.TID 0000.0001)     Wall clock time:   4.18034553527832
(PID.TID 0000.0001)          No. starts:          15
(PID.TID 0000.0001)           No. stops:          15
(PID.TID 0000.0001)   Seconds in section "UPDATE_SURF_DR      [FORWARD_STEP]":
(PID.TID 0000.0001)           User time:  7.803344726562500E-002
(PID.TID 0000.0001)         System time:  0.000000000000000E+000
(PID.TID 0000.0001)     Wall clock time:  7.924437522888184E-002
(PID.TID 0000.0001)          No. starts:          15
(PID.TID 0000.0001)           No. stops:          15
(PID.TID 0000.0001)   Seconds in section "SOLVE_FOR_PRESSURE  [FORWARD_STEP]":
(PID.TID 0000.0001)           User time:   2.13808059692383
(PID.TID 0000.0001)         System time:  0.000000000000000E+000
(PID.TID 0000.0001)     Wall clock time:   2.14921188354492
(PID.TID 0000.0001)          No. starts:          15
(PID.TID 0000.0001)           No. stops:          15
(PID.TID 0000.0001)   Seconds in section "MOM_CORRECTION_STEP [FORWARD_STEP]":
(PID.TID 0000.0001)           User time:  0.257171630859375
(PID.TID 0000.0001)         System time:  0.000000000000000E+000
(PID.TID 0000.0001)     Wall clock time:  0.259263753890991
(PID.TID 0000.0001)          No. starts:          15
(PID.TID 0000.0001)           No. stops:          15
(PID.TID 0000.0001)   Seconds in section "INTEGR_CONTINUITY   [FORWARD_STEP]":
(PID.TID 0000.0001)           User time:  0.276462554931641
(PID.TID 0000.0001)         System time:  0.000000000000000E+000
(PID.TID 0000.0001)     Wall clock time:  0.277177572250366
(PID.TID 0000.0001)          No. starts:          15
(PID.TID 0000.0001)           No. stops:          15
(PID.TID 0000.0001)   Seconds in section "BLOCKING_EXCHANGES  [FORWARD_STEP]":
(PID.TID 0000.0001)           User time:   1.53609466552734
(PID.TID 0000.0001)         System time:  0.000000000000000E+000
(PID.TID 0000.0001)     Wall clock time:   1.57809495925903
(PID.TID 0000.0001)          No. starts:          30
(PID.TID 0000.0001)           No. stops:          30
(PID.TID 0000.0001)   Seconds in section "THERMODYNAMICS      [FORWARD_STEP]":
(PID.TID 0000.0001)           User time:   5.84810256958008
(PID.TID 0000.0001)         System time:  0.000000000000000E+000
(PID.TID 0000.0001)     Wall clock time:   5.86915683746338
(PID.TID 0000.0001)          No. starts:          15
(PID.TID 0000.0001)           No. stops:          15
(PID.TID 0000.0001)   Seconds in section "TRC_CORRECTION_STEP [FORWARD_STEP]":
(PID.TID 0000.0001)           User time:  9.918212890625000E-005
(PID.TID 0000.0001)         System time:  0.000000000000000E+000
(PID.TID 0000.0001)     Wall clock time:  9.298324584960938E-005
(PID.TID 0000.0001)          No. starts:          15
(PID.TID 0000.0001)           No. stops:          15
(PID.TID 0000.0001)   Seconds in section "MONITOR             [FORWARD_STEP]":
(PID.TID 0000.0001)           User time:   1.40832901000977
(PID.TID 0000.0001)         System time:  0.000000000000000E+000
(PID.TID 0000.0001)     Wall clock time:   1.42676281929016
(PID.TID 0000.0001)          No. starts:          15
(PID.TID 0000.0001)           No. stops:          15
(PID.TID 0000.0001)   Seconds in section "DO_THE_MODEL_IO     [FORWARD_STEP]":
(PID.TID 0000.0001)           User time:   4.03008270263672
(PID.TID 0000.0001)         System time:  0.000000000000000E+000
(PID.TID 0000.0001)     Wall clock time:   6.44254589080811
(PID.TID 0000.0001)          No. starts:          15
(PID.TID 0000.0001)           No. stops:          15
(PID.TID 0000.0001)   Seconds in section "DO_WRITE_PICKUP     [FORWARD_STEP]":
(PID.TID 0000.0001)           User time:   4.14284515380859
(PID.TID 0000.0001)         System time:  0.000000000000000E+000
(PID.TID 0000.0001)     Wall clock time:   6.45556092262268
(PID.TID 0000.0001)          No. starts:          15
(PID.TID 0000.0001)           No. stops:          15
(PID.TID 0000.0001) // ======================================================
(PID.TID 0000.0001) // Tile <-> Tile communication statistics
(PID.TID 0000.0001) // ======================================================
(PID.TID 0000.0001) // o Tile number: 000001
(PID.TID 0000.0001) //         No. X exchanges =              0
(PID.TID 0000.0001) //            Max. X spins =              0
(PID.TID 0000.0001) //            Min. X spins =     1000000000
(PID.TID 0000.0001) //          Total. X spins =              0
(PID.TID 0000.0001) //            Avg. X spins =       0.00E+00
(PID.TID 0000.0001) //         No. Y exchanges =              0
(PID.TID 0000.0001) //            Max. Y spins =              0
(PID.TID 0000.0001) //            Min. Y spins =     1000000000
(PID.TID 0000.0001) //          Total. Y spins =              0
(PID.TID 0000.0001) //            Avg. Y spins =       0.00E+00
(PID.TID 0000.0001) // o Tile number: 000002
(PID.TID 0000.0001) //         No. X exchanges =              0
(PID.TID 0000.0001) //            Max. X spins =              0
(PID.TID 0000.0001) //            Min. X spins =     1000000000
(PID.TID 0000.0001) //          Total. X spins =              0
(PID.TID 0000.0001) //            Avg. X spins =       0.00E+00
(PID.TID 0000.0001) //         No. Y exchanges =              0
(PID.TID 0000.0001) //            Max. Y spins =              0
(PID.TID 0000.0001) //            Min. Y spins =     1000000000
(PID.TID 0000.0001) //          Total. Y spins =              0
(PID.TID 0000.0001) //            Avg. Y spins =       0.00E+00
(PID.TID 0000.0001) // o Tile number: 000003
(PID.TID 0000.0001) //         No. X exchanges =              0
(PID.TID 0000.0001) //            Max. X spins =              0
(PID.TID 0000.0001) //            Min. X spins =     1000000000
(PID.TID 0000.0001) //          Total. X spins =              0
(PID.TID 0000.0001) //            Avg. X spins =       0.00E+00
(PID.TID 0000.0001) //         No. Y exchanges =              0
(PID.TID 0000.0001) //            Max. Y spins =              0
(PID.TID 0000.0001) //            Min. Y spins =     1000000000
(PID.TID 0000.0001) //          Total. Y spins =              0
(PID.TID 0000.0001) //            Avg. Y spins =       0.00E+00
(PID.TID 0000.0001) // o Tile number: 000004
(PID.TID 0000.0001) //         No. X exchanges =              0
(PID.TID 0000.0001) //            Max. X spins =              0
(PID.TID 0000.0001) //            Min. X spins =     1000000000
(PID.TID 0000.0001) //          Total. X spins =              0
(PID.TID 0000.0001) //            Avg. X spins =       0.00E+00
(PID.TID 0000.0001) //         No. Y exchanges =              0
(PID.TID 0000.0001) //            Max. Y spins =              0
(PID.TID 0000.0001) //            Min. Y spins =     1000000000
(PID.TID 0000.0001) //          Total. Y spins =              0
(PID.TID 0000.0001) //            Avg. Y spins =       0.00E+00
(PID.TID 0000.0001) // o Tile number: 000005
(PID.TID 0000.0001) //         No. X exchanges =              0
(PID.TID 0000.0001) //            Max. X spins =              0
(PID.TID 0000.0001) //            Min. X spins =     1000000000
(PID.TID 0000.0001) //          Total. X spins =              0
(PID.TID 0000.0001) //            Avg. X spins =       0.00E+00
(PID.TID 0000.0001) //         No. Y exchanges =              0
(PID.TID 0000.0001) //            Max. Y spins =              0
(PID.TID 0000.0001) //            Min. Y spins =     1000000000
(PID.TID 0000.0001) //          Total. Y spins =              0
(PID.TID 0000.0001) //            Avg. Y spins =       0.00E+00
(PID.TID 0000.0001) // o Tile number: 000006
(PID.TID 0000.0001) //         No. X exchanges =              0
(PID.TID 0000.0001) //            Max. X spins =              0
(PID.TID 0000.0001) //            Min. X spins =     1000000000
(PID.TID 0000.0001) //          Total. X spins =              0
(PID.TID 0000.0001) //            Avg. X spins =       0.00E+00
(PID.TID 0000.0001) //         No. Y exchanges =              0
(PID.TID 0000.0001) //            Max. Y spins =              0
(PID.TID 0000.0001) //            Min. Y spins =     1000000000
(PID.TID 0000.0001) //          Total. Y spins =              0
(PID.TID 0000.0001) //            Avg. Y spins =       0.00E+00
(PID.TID 0000.0001) // o Tile number: 000007
(PID.TID 0000.0001) //         No. X exchanges =              0
(PID.TID 0000.0001) //            Max. X spins =              0
(PID.TID 0000.0001) //            Min. X spins =     1000000000
(PID.TID 0000.0001) //          Total. X spins =              0
(PID.TID 0000.0001) //            Avg. X spins =       0.00E+00
(PID.TID 0000.0001) //         No. Y exchanges =              0
(PID.TID 0000.0001) //            Max. Y spins =              0
(PID.TID 0000.0001) //            Min. Y spins =     1000000000
(PID.TID 0000.0001) //          Total. Y spins =              0
(PID.TID 0000.0001) //            Avg. Y spins =       0.00E+00
(PID.TID 0000.0001) // o Tile number: 000008
(PID.TID 0000.0001) //         No. X exchanges =              0
(PID.TID 0000.0001) //            Max. X spins =              0
(PID.TID 0000.0001) //            Min. X spins =     1000000000
(PID.TID 0000.0001) //          Total. X spins =              0
(PID.TID 0000.0001) //            Avg. X spins =       0.00E+00
(PID.TID 0000.0001) //         No. Y exchanges =              0
(PID.TID 0000.0001) //            Max. Y spins =              0
(PID.TID 0000.0001) //            Min. Y spins =     1000000000
(PID.TID 0000.0001) //          Total. Y spins =              0
(PID.TID 0000.0001) //            Avg. Y spins =       0.00E+00
(PID.TID 0000.0001) // o Tile number: 000009
(PID.TID 0000.0001) //         No. X exchanges =              0
(PID.TID 0000.0001) //            Max. X spins =              0
(PID.TID 0000.0001) //            Min. X spins =     1000000000
(PID.TID 0000.0001) //          Total. X spins =              0
(PID.TID 0000.0001) //            Avg. X spins =       0.00E+00
(PID.TID 0000.0001) //         No. Y exchanges =              0
(PID.TID 0000.0001) //            Max. Y spins =              0
(PID.TID 0000.0001) //            Min. Y spins =     1000000000
(PID.TID 0000.0001) //          Total. Y spins =              0
(PID.TID 0000.0001) //            Avg. Y spins =       0.00E+00
(PID.TID 0000.0001) // o Tile number: 000010
(PID.TID 0000.0001) //         No. X exchanges =              0
(PID.TID 0000.0001) //            Max. X spins =              0
(PID.TID 0000.0001) //            Min. X spins =     1000000000
(PID.TID 0000.0001) //          Total. X spins =              0
(PID.TID 0000.0001) //            Avg. X spins =       0.00E+00
(PID.TID 0000.0001) //         No. Y exchanges =              0
(PID.TID 0000.0001) //            Max. Y spins =              0
(PID.TID 0000.0001) //            Min. Y spins =     1000000000
(PID.TID 0000.0001) //          Total. Y spins =              0
(PID.TID 0000.0001) //            Avg. Y spins =       0.00E+00
(PID.TID 0000.0001) // o Thread number: 000001
(PID.TID 0000.0001) //            No. barriers =          71334
(PID.TID 0000.0001) //      Max. barrier spins =              1
(PID.TID 0000.0001) //      Min. barrier spins =              1
(PID.TID 0000.0001) //     Total barrier spins =          71334
(PID.TID 0000.0001) //      Avg. barrier spins =       1.00E+00
PROGRAM MAIN: Execution ended Normally
