(PID.TID 0000.0001) 
(PID.TID 0000.0001) // ======================================================
(PID.TID 0000.0001) //                      MITgcm UV
(PID.TID 0000.0001) //                      =========
(PID.TID 0000.0001) // ======================================================
(PID.TID 0000.0001) // execution environment starting up...
(PID.TID 0000.0001) 
(PID.TID 0000.0001) // MITgcmUV version:  checkpoint67g
(PID.TID 0000.0001) // Build user:        anirban
(PID.TID 0000.0001) // Build host:        login2
(PID.TID 0000.0001) // Build date:        Sat Mar  2 14:32:33 PST 2019
(PID.TID 0000.0001) 
(PID.TID 0000.0001) // =======================================================
(PID.TID 0000.0001) // Execution Environment parameter file "eedata"
(PID.TID 0000.0001) // =======================================================
(PID.TID 0000.0001) ># Example "eedata" file
(PID.TID 0000.0001) ># Lines beginning "#" are comments
(PID.TID 0000.0001) ># nTx - No. threads per process in X
(PID.TID 0000.0001) ># nTy - No. threads per process in Y
(PID.TID 0000.0001) > &EEPARMS
(PID.TID 0000.0001) > nTx=1,
(PID.TID 0000.0001) > nTy=1,
(PID.TID 0000.0001) ># debugMode=.TRUE.,
(PID.TID 0000.0001) > /
(PID.TID 0000.0001) ># Note: Some systems use & as the
(PID.TID 0000.0001) ># namelist terminator. Other systems
(PID.TID 0000.0001) ># use a / character (as shown here).
(PID.TID 0000.0001) 
(PID.TID 0000.0001) // =======================================================
(PID.TID 0000.0001) // Computational Grid Specification ( see files "SIZE.h" )
(PID.TID 0000.0001) //                                  ( and "eedata"       )
(PID.TID 0000.0001) // =======================================================
(PID.TID 0000.0001)      nPx =   97 ; /* No. processes in X */
(PID.TID 0000.0001)      nPy =    1 ; /* No. processes in Y */
(PID.TID 0000.0001)      nSx =   10 ; /* No. tiles in X per process */
(PID.TID 0000.0001)      nSy =    1 ; /* No. tiles in Y per process */
(PID.TID 0000.0001)      sNx =   33 ; /* Tile size in X */
(PID.TID 0000.0001)      sNy =   28 ; /* Tile size in Y */
(PID.TID 0000.0001)      OLx =    4 ; /* Tile overlap distance in X */
(PID.TID 0000.0001)      OLy =    4 ; /* Tile overlap distance in Y */
(PID.TID 0000.0001)      nTx =    1 ; /* No. threads in X per process */
(PID.TID 0000.0001)      nTy =    1 ; /* No. threads in Y per process */
(PID.TID 0000.0001)       Nr =  100 ; /* No. levels in the vertical   */
(PID.TID 0000.0001)       Nx =32010 ; /* Total domain size in X ( = nPx*nSx*sNx ) */
(PID.TID 0000.0001)       Ny =   28 ; /* Total domain size in Y ( = nPy*nSy*sNy ) */
(PID.TID 0000.0001)   nTiles =   10 ; /* Total no. tiles per process ( = nSx*nSy ) */
(PID.TID 0000.0001)   nProcs =   97 ; /* Total no. processes ( = nPx*nPy ) */
(PID.TID 0000.0001) nThreads =    1 ; /* Total no. threads per process ( = nTx*nTy ) */
(PID.TID 0000.0001) usingMPI =    T ; /* Flag used to control whether MPI is in use */
(PID.TID 0000.0001)                   /*  note: To execute a program with MPI calls */
(PID.TID 0000.0001)                   /*  it must be launched appropriately e.g     */
(PID.TID 0000.0001)                   /*  "mpirun -np 64 ......"                    */
(PID.TID 0000.0001) useCoupler=    F ;/* Flag used to control communications with   */
(PID.TID 0000.0001)                   /*  other model components, through a coupler */
(PID.TID 0000.0001) useNest2W_parent =    F ;/* Control 2-W Nesting comm */
(PID.TID 0000.0001) useNest2W_child  =    F ;/* Control 2-W Nesting comm */
(PID.TID 0000.0001) debugMode =    F ; /* print debug msg. (sequence of S/R calls)  */
(PID.TID 0000.0001) printMapIncludesZeros=    F ; /* print zeros in Std.Output maps */
(PID.TID 0000.0001) maxLengthPrt1D=   65 /* maxLength of 1D array printed to StdOut */
(PID.TID 0000.0001) 
(PID.TID 0000.0001) ======= Starting MPI parallel Run =========
(PID.TID 0000.0001)  My Processor Name (len:  9 ) = hpc-22-15
(PID.TID 0000.0001)  Located at (  0,  0) on processor grid (0: 96,0:  0)
(PID.TID 0000.0001)  Origin at  (     1,     1) on global grid (1: 32010,1:    28)
(PID.TID 0000.0001)  North neighbor = processor 0000
(PID.TID 0000.0001)  South neighbor = processor 0000
(PID.TID 0000.0001)   East neighbor = processor 0001
(PID.TID 0000.0001)   West neighbor = processor 0096
(PID.TID 0000.0001) // ======================================================
(PID.TID 0000.0001) // Mapping of tiles to threads
(PID.TID 0000.0001) // ======================================================
(PID.TID 0000.0001) // -o- Thread   1, tiles (   1:  10,   1:   1)
(PID.TID 0000.0001) 
(PID.TID 0000.0001) W2_READPARMS: opening data.exch2
(PID.TID 0000.0001)  OPEN_COPY_DATA_FILE: opening file data.exch2
(PID.TID 0000.0001) // =======================================================
(PID.TID 0000.0001) // Parameter file "data.exch2"
(PID.TID 0000.0001) // =======================================================
(PID.TID 0000.0001) ># EXCH2 Package: Wrapper-2 User Choice
(PID.TID 0000.0001) >#--------------------
(PID.TID 0000.0001) >#  preDefTopol   :: pre-defined Topology selector:
(PID.TID 0000.0001) >#                :: = 0 : topology defined from processing "data.exch2";
(PID.TID 0000.0001) >#                :: = 1 : simple, single facet topology;
(PID.TID 0000.0001) >#                :: = 2 : customized topology (w2_set_myown_facets)
(PID.TID 0000.0001) >#                :: = 3 : 6-facet Cube (3 face-dims: nRed, nGreen, nBlue).
(PID.TID 0000.0001) >#  dimsFacets    :: facet pair of dimensions (n1x,n1y, n2x,n2y ...)
(PID.TID 0000.0001) >#  facetEdgeLink :: Face-Edge connectivity map:
(PID.TID 0000.0001) >#    facetEdgeLink(i,j)=XX.1 : face(j)-edge(i) (i=1,2,3,4 <==> N,S,E,W)
(PID.TID 0000.0001) >#    is connected to Northern edge of face "XX" ; similarly,
(PID.TID 0000.0001) >#    = XX.2 : to Southern.E, XX.3 = Eastern.E, XX.4 = Western.E of face "XX"
(PID.TID 0000.0001) >#  blankList     :: List of "blank" tiles
(PID.TID 0000.0001) >#  W2_mapIO      :: global map IO selector (-1 = old type ; 0 = 1 long line in X
(PID.TID 0000.0001) >#                :: 1 = compact, mostly in Y dir)
(PID.TID 0000.0001) >#  W2_printMsg   :: option for information messages printing
(PID.TID 0000.0001) >#                :: <0 : write to log file ; =0 : minimum print ;
(PID.TID 0000.0001) >#                :: =1 : no duplicated print ; =2 : all processes do print
(PID.TID 0000.0001) >#--------------------
(PID.TID 0000.0001) > &W2_EXCH2_PARM01
(PID.TID 0000.0001) >  W2_printMsg= 0,
(PID.TID 0000.0001) >  W2_mapIO   = 1,
(PID.TID 0000.0001) >#
(PID.TID 0000.0001) >#-- 5 facets llc_270 topology (drop facet 6 and its connection):
(PID.TID 0000.0001) >  preDefTopol = 1,
(PID.TID 0000.0001) >  dimsFacets = 1815, 532,
(PID.TID 0000.0001) >  blankList =
(PID.TID 0000.0001) >   386,
(PID.TID 0000.0001) >   441,
(PID.TID 0000.0001) >   496,
(PID.TID 0000.0001) >   551,
(PID.TID 0000.0001) >   606,
(PID.TID 0000.0001) >   661,
(PID.TID 0000.0001) >   716,
(PID.TID 0000.0001) >   771,
(PID.TID 0000.0001) >   826,
(PID.TID 0000.0001) >   881,
(PID.TID 0000.0001) >   936,
(PID.TID 0000.0001) >   991,
(PID.TID 0000.0001) >   442,
(PID.TID 0000.0001) >   497,
(PID.TID 0000.0001) >   552,
(PID.TID 0000.0001) >   607,
(PID.TID 0000.0001) >   662,
(PID.TID 0000.0001) >   717,
(PID.TID 0000.0001) >   772,
(PID.TID 0000.0001) >   827,
(PID.TID 0000.0001) >   882,
(PID.TID 0000.0001) >   937,
(PID.TID 0000.0001) >   992,
(PID.TID 0000.0001) >   498,
(PID.TID 0000.0001) >   553,
(PID.TID 0000.0001) >   608,
(PID.TID 0000.0001) >   663,
(PID.TID 0000.0001) >   718,
(PID.TID 0000.0001) >   773,
(PID.TID 0000.0001) >   828,
(PID.TID 0000.0001) >   883,
(PID.TID 0000.0001) >   938,
(PID.TID 0000.0001) >   993,
(PID.TID 0000.0001) >   554,
(PID.TID 0000.0001) >   774,
(PID.TID 0000.0001) >   829,
(PID.TID 0000.0001) >   884,
(PID.TID 0000.0001) >   939,
(PID.TID 0000.0001) >   994,
(PID.TID 0000.0001) >   830,
(PID.TID 0000.0001) >   885,
(PID.TID 0000.0001) >   940,
(PID.TID 0000.0001) >   995,
(PID.TID 0000.0001) >   941,
(PID.TID 0000.0001) >   996,
(PID.TID 0000.0001) >   942,
(PID.TID 0000.0001) >   997,
(PID.TID 0000.0001) >    51,
(PID.TID 0000.0001) >    52,
(PID.TID 0000.0001) >    53,
(PID.TID 0000.0001) >   108,
(PID.TID 0000.0001) >    54,
(PID.TID 0000.0001) >   109,
(PID.TID 0000.0001) >   164,
(PID.TID 0000.0001) >   219,
(PID.TID 0000.0001) >   274,
(PID.TID 0000.0001) >   329,
(PID.TID 0000.0001) >   714,
(PID.TID 0000.0001) >   769,
(PID.TID 0000.0001) >   824,
(PID.TID 0000.0001) >   989,
(PID.TID 0000.0001) >    55,
(PID.TID 0000.0001) >   110,
(PID.TID 0000.0001) >   165,
(PID.TID 0000.0001) >   220,
(PID.TID 0000.0001) >   275,
(PID.TID 0000.0001) >   330,
(PID.TID 0000.0001) >   385,
(PID.TID 0000.0001) >   715,
(PID.TID 0000.0001) >   770,
(PID.TID 0000.0001) >   825,
(PID.TID 0000.0001) >   880,
(PID.TID 0000.0001) >   935,
(PID.TID 0000.0001) >   990,
(PID.TID 0000.0001) >  1045,
(PID.TID 0000.0001) > &
(PID.TID 0000.0001) 
(PID.TID 0000.0001) W2_READPARMS: finished reading data.exch2
(PID.TID 0000.0001) W2_useE2ioLayOut=    T ;/* T: use Exch2 glob IO map; F: use model default */
(PID.TID 0000.0001) W2_mapIO        =   1 ; /* select option for Exch2 global-IO map */
(PID.TID 0000.0001) W2_printMsg     =   0 ; /* select option for printing information */
(PID.TID 0000.0001) ===== Start setting W2 TOPOLOGY:
(PID.TID 0000.0001) W2_E2SETUP: number of Active Tiles =     970
(PID.TID 0000.0001) W2_E2SETUP: number of Blank Tiles  =      75
(PID.TID 0000.0001) W2_E2SETUP: Total number of Tiles  =    1045
(PID.TID 0000.0001) W2_SET_SINGLE_FACET: preDefTopol=  1 selected
(PID.TID 0000.0001) W2_E2SETUP: Total number of Facets =       1
(PID.TID 0000.0001) W2_SET_F2F_INDEX: index matrix for connected Facet-Edges:
(PID.TID 0000.0001) W2_SET_MAP_TILES: tile mapping within facet and global Map:
(PID.TID 0000.0001)  W2_mapIO = 1815 (=   55*sNx)
(PID.TID 0000.0001)  Global Map (IO): X-size=    1815 , Y-size=     532
(PID.TID 0000.0001) W2_SET_MAP_TILES: tile offset within facet and global Map:
- facet  1 : X-size=  1815 , Y-size=   532 ; 1045 tiles (Tx,Ty=  55,  19)
(PID.TID 0000.0001) W2_SET_MAP_CUMSUM: setting Facet Matrix for CUMUL-SUM
 Facet Matrix for CUMUL-SUM (nFacets=   1, nActive=   1 ):
- facet  1 :  0  0 ,
(PID.TID 0000.0001) W2_SET_MAP_CUMSUM: done (skip Tile Matrix setting)
(PID.TID 0000.0001) W2_SET_TILE2TILES: tile neighbours and index connection:
(PID.TID 0000.0001) current Max.Nb.Neighbours (e.g., on tile    8 ) =  4
(PID.TID 0000.0001) ===== W2 TILE TOPOLOGY =====
(PID.TID 0000.0001)  TILE:     1 (bi,bj=   1   1 ), Nb of Neighbours =  2
(PID.TID 0000.0001)     NEIGHBOUR  1 = TILE   56 (n=  2) Comm = MSG (PROC=    6)
(PID.TID 0000.0001)     NEIGHBOUR  2 = TILE    2 (n=  3) Comm = PUT (PROC=    1)
(PID.TID 0000.0001)  TILE:     2 (bi,bj=   2   1 ), Nb of Neighbours =  3
(PID.TID 0000.0001)     NEIGHBOUR  1 = TILE   57 (n=  2) Comm = MSG (PROC=    6)
(PID.TID 0000.0001)     NEIGHBOUR  2 = TILE    3 (n=  3) Comm = PUT (PROC=    1)
(PID.TID 0000.0001)     NEIGHBOUR  3 = TILE    1 (n=  2) Comm = PUT (PROC=    1)
(PID.TID 0000.0001)  TILE:     3 (bi,bj=   3   1 ), Nb of Neighbours =  3
(PID.TID 0000.0001)     NEIGHBOUR  1 = TILE   58 (n=  2) Comm = MSG (PROC=    6)
(PID.TID 0000.0001)     NEIGHBOUR  2 = TILE    4 (n=  3) Comm = PUT (PROC=    1)
(PID.TID 0000.0001)     NEIGHBOUR  3 = TILE    2 (n=  2) Comm = PUT (PROC=    1)
(PID.TID 0000.0001)  TILE:     4 (bi,bj=   4   1 ), Nb of Neighbours =  3
(PID.TID 0000.0001)     NEIGHBOUR  1 = TILE   59 (n=  2) Comm = MSG (PROC=    6)
(PID.TID 0000.0001)     NEIGHBOUR  2 = TILE    5 (n=  3) Comm = PUT (PROC=    1)
(PID.TID 0000.0001)     NEIGHBOUR  3 = TILE    3 (n=  2) Comm = PUT (PROC=    1)
(PID.TID 0000.0001)  TILE:     5 (bi,bj=   5   1 ), Nb of Neighbours =  3
(PID.TID 0000.0001)     NEIGHBOUR  1 = TILE   60 (n=  2) Comm = MSG (PROC=    6)
(PID.TID 0000.0001)     NEIGHBOUR  2 = TILE    6 (n=  3) Comm = PUT (PROC=    1)
(PID.TID 0000.0001)     NEIGHBOUR  3 = TILE    4 (n=  2) Comm = PUT (PROC=    1)
(PID.TID 0000.0001)  TILE:     6 (bi,bj=   6   1 ), Nb of Neighbours =  3
(PID.TID 0000.0001)     NEIGHBOUR  1 = TILE   61 (n=  2) Comm = MSG (PROC=    6)
(PID.TID 0000.0001)     NEIGHBOUR  2 = TILE    7 (n=  3) Comm = PUT (PROC=    1)
(PID.TID 0000.0001)     NEIGHBOUR  3 = TILE    5 (n=  2) Comm = PUT (PROC=    1)
(PID.TID 0000.0001)  TILE:     7 (bi,bj=   7   1 ), Nb of Neighbours =  3
(PID.TID 0000.0001)     NEIGHBOUR  1 = TILE   62 (n=  2) Comm = MSG (PROC=    6)
(PID.TID 0000.0001)     NEIGHBOUR  2 = TILE    8 (n=  4) Comm = PUT (PROC=    1)
(PID.TID 0000.0001)     NEIGHBOUR  3 = TILE    6 (n=  2) Comm = PUT (PROC=    1)
(PID.TID 0000.0001)  TILE:     8 (bi,bj=   8   1 ), Nb of Neighbours =  4
(PID.TID 0000.0001)     NEIGHBOUR  1 = TILE   63 (n=  2) Comm = MSG (PROC=    6)
(PID.TID 0000.0001)     NEIGHBOUR  2 = TILE  998 (n=  1) Comm = MSG (PROC=   93)
(PID.TID 0000.0001)     NEIGHBOUR  3 = TILE    9 (n=  4) Comm = PUT (PROC=    1)
(PID.TID 0000.0001)     NEIGHBOUR  4 = TILE    7 (n=  2) Comm = PUT (PROC=    1)
(PID.TID 0000.0001)  TILE:     9 (bi,bj=   9   1 ), Nb of Neighbours =  4
(PID.TID 0000.0001)     NEIGHBOUR  1 = TILE   64 (n=  2) Comm = MSG (PROC=    6)
(PID.TID 0000.0001)     NEIGHBOUR  2 = TILE  999 (n=  1) Comm = MSG (PROC=   93)
(PID.TID 0000.0001)     NEIGHBOUR  3 = TILE   10 (n=  4) Comm = PUT (PROC=    1)
(PID.TID 0000.0001)     NEIGHBOUR  4 = TILE    8 (n=  3) Comm = PUT (PROC=    1)
(PID.TID 0000.0001)  TILE:    10 (bi,bj=  10   1 ), Nb of Neighbours =  4
(PID.TID 0000.0001)     NEIGHBOUR  1 = TILE   65 (n=  2) Comm = MSG (PROC=    6)
(PID.TID 0000.0001)     NEIGHBOUR  2 = TILE 1000 (n=  1) Comm = MSG (PROC=   93)
(PID.TID 0000.0001)     NEIGHBOUR  3 = TILE   11 (n=  4) Comm = MSG (PROC=    2)
(PID.TID 0000.0001)     NEIGHBOUR  4 = TILE    9 (n=  3) Comm = PUT (PROC=    1)
(PID.TID 0000.0001) =====       setting W2 TOPOLOGY: Done
(PID.TID 0000.0001) 
(PID.TID 0000.0001)  INI_PARMS: opening model parameter file "data"
(PID.TID 0000.0001)  OPEN_COPY_DATA_FILE: opening file data
(PID.TID 0000.0001) // =======================================================
(PID.TID 0000.0001) // Parameter file "data"
(PID.TID 0000.0001) // =======================================================
(PID.TID 0000.0001) >### Data file with primary model parameters -----------------------------------
(PID.TID 0000.0001) >#
(PID.TID 0000.0001) >### Continuous equation parameters --------------------------------------------
(PID.TID 0000.0001) > &PARM01
(PID.TID 0000.0001) >## Reference temperatures and salinities for every vertical level.
(PID.TID 0000.0001) > tRef =  18.89, 18.89, 18.89, 18.89, 18.89, 18.87, 18.85, 18.82,
(PID.TID 0000.0001) >         18.80, 18.73, 18.63, 18.49, 18.28, 18.08, 17.86, 17.63,
(PID.TID 0000.0001) >         17.40, 17.18, 16.95, 16.73, 16.52, 16.31, 16.10, 15.89,
(PID.TID 0000.0001) >         15.69, 15.49, 15.28, 15.08, 14.88, 14.67, 14.47, 14.25,
(PID.TID 0000.0001) >         14.03, 13.80, 13.55, 13.29, 13.01, 12.73, 12.42, 12.11,
(PID.TID 0000.0001) >         11.78, 11.43, 11.07, 10.70, 10.31,  9.93,  9.53,  9.11,
(PID.TID 0000.0001) >          8.71,  8.29,  7.89,  7.51,  7.13,  6.78,  6.44,  6.11,
(PID.TID 0000.0001) >          5.81,  5.51,  5.23,  4.97,  4.73,  4.51,  4.30,  4.11,
(PID.TID 0000.0001) >          3.94,  3.78,  3.63,  3.50,  3.38,  3.25,  3.14,  3.04,
(PID.TID 0000.0001) >          2.94,  2.83,  2.74,  2.64,  2.54,  2.45,  2.36,  2.27,
(PID.TID 0000.0001) >          2.19,  2.10,  2.03,  1.95,  1.86,  1.78,  1.70,  1.63,
(PID.TID 0000.0001) >          1.55,  1.48,  1.41,  1.34,  1.27,  1.20,  1.13,  1.06,
(PID.TID 0000.0001) >          1.00,  0.96,  0.93,  0.91,
(PID.TID 0000.0001) > sRef =  34.84, 34.84, 34.84, 34.84, 34.84, 34.84, 34.85, 34.85,
(PID.TID 0000.0001) >         34.85, 34.86, 34.87, 34.88, 34.90, 34.91, 34.93, 34.95,
(PID.TID 0000.0001) >         34.96, 34.98, 34.99, 35.00, 35.01, 35.02, 35.03, 35.04,
(PID.TID 0000.0001) >         35.05, 35.06, 35.07, 35.07, 35.07, 35.07, 35.07, 35.07,
(PID.TID 0000.0001) >         35.07, 35.06, 35.05, 35.04, 35.03, 35.02, 35.01, 34.99,
(PID.TID 0000.0001) >         34.97, 34.95, 34.92, 34.90, 34.87, 34.84, 34.81, 34.78,
(PID.TID 0000.0001) >         34.75, 34.72, 34.69, 34.67, 34.65, 34.62, 34.61, 34.60,
(PID.TID 0000.0001) >         34.59, 34.59, 34.58, 34.59, 34.59, 34.60, 34.60, 34.61,
(PID.TID 0000.0001) >         34.62, 34.63, 34.64, 34.65, 34.66, 34.67, 34.67, 34.68,
(PID.TID 0000.0001) >         34.69, 34.70, 34.71, 34.71, 34.72, 34.72, 34.73, 34.73,
(PID.TID 0000.0001) >         34.73, 34.74, 34.74, 34.74, 34.74, 34.75, 34.74, 34.74,
(PID.TID 0000.0001) >         34.74, 34.74, 34.74, 34.74, 34.74, 34.74, 34.73, 34.73,
(PID.TID 0000.0001) >         34.73, 34.73, 34.73, 34.73,
(PID.TID 0000.0001) > rhonil        = 1029.,
(PID.TID 0000.0001) > rhoConstFresh = 1000.,
(PID.TID 0000.0001) > eosType = 'JMD95Z',
(PID.TID 0000.0001) >#
(PID.TID 0000.0001) >## Various prescriptions for viscosity and diffusivity.
(PID.TID 0000.0001) > viscAr     = 5.e-04,
(PID.TID 0000.0001) > viscA4Grid = 0.0,
(PID.TID 0000.0001) > diffKhT    = 0.E0,
(PID.TID 0000.0001) > diffKhS    = 0.E0,
(PID.TID 0000.0001) > diffK4T    = 0.E10,
(PID.TID 0000.0001) > diffK4S    = 0.E10,
(PID.TID 0000.0001) > diffKrT    = 1.0e-5,
(PID.TID 0000.0001) > diffKrS    = 1.0e-5,
(PID.TID 0000.0001) > bottomDragQuadratic = 0.002,
(PID.TID 0000.0001) > no_slip_sides     = .TRUE.,
(PID.TID 0000.0001) > no_slip_bottom    = .TRUE.,
(PID.TID 0000.0001) > implicitDiffusion = .TRUE.,
(PID.TID 0000.0001) > implicitViscosity = .TRUE.,
(PID.TID 0000.0001) ># horizontal momentum closure
(PID.TID 0000.0001) > viscC4Leith   = 2.0,
(PID.TID 0000.0001) > viscC4Leithd  = 2.0,
(PID.TID 0000.0001) > viscA4GridMax = 0.8,
(PID.TID 0000.0001) >#
(PID.TID 0000.0001) >## Parameters that control numerical methods like advection schemes and
(PID.TID 0000.0001) >#  treatment of the free-surface.
(PID.TID 0000.0001) > tempAdvScheme = 7,
(PID.TID 0000.0001) > saltAdvScheme = 7,
(PID.TID 0000.0001) > implicitFreeSurface     = .TRUE.,
(PID.TID 0000.0001) > staggerTimeStep         = .TRUE.,
(PID.TID 0000.0001) > exactConserv            = .TRUE.,
(PID.TID 0000.0001) > vectorInvariantMomentum = .TRUE.,
(PID.TID 0000.0001) > useAreaViscLength       = .TRUE.,
(PID.TID 0000.0001) > highOrderVorticity      = .TRUE.,
(PID.TID 0000.0001) > multiDimAdvection       = .TRUE.,
(PID.TID 0000.0001) >#
(PID.TID 0000.0001) >## These parameters seem to be associated with the external forcing.
(PID.TID 0000.0001) > convertFW2Salt = -1.,
(PID.TID 0000.0001) > temp_EvPrRn    =  0.,
(PID.TID 0000.0001) > useRealFreshWaterFlux = .FALSE.,
(PID.TID 0000.0001) > allowFreezing         = .FALSE.,
(PID.TID 0000.0001) >#
(PID.TID 0000.0001) >## Parameters associated with bathymetry specification.
(PID.TID 0000.0001) > hFacMin   = 0.2,
(PID.TID 0000.0001) > hFacMinDr = 5.,
(PID.TID 0000.0001) >#
(PID.TID 0000.0001) >## Parameters for reading, writing, and misc numerical details.
(PID.TID 0000.0001) > globalFiles     = .TRUE.,
(PID.TID 0000.0001) > useSingleCpuIO  = .TRUE.,
(PID.TID 0000.0001) > readBinaryPrec  = 32,
(PID.TID 0000.0001) > writeBinaryPrec = 32,
(PID.TID 0000.0001) > debuglevel      = 2,
(PID.TID 0000.0001) >#
(PID.TID 0000.0001) >## Unused parameters.
(PID.TID 0000.0001) ># gravity = 9.81,
(PID.TID 0000.0001) ># viscA4Grid = 2.0E-3,
(PID.TID 0000.0001) ># viscAhGrid = 2.5E-4,
(PID.TID 0000.0001) ># bottomDraglinear    = 1.E-3,
(PID.TID 0000.0001) ># Note: nonlinFreeSurf=1 with rStar=0 breaks the code.
(PID.TID 0000.0001) ># nonlinFreeSurf = 4,
(PID.TID 0000.0001) ># select_rStar   = 1,
(PID.TID 0000.0001) ># hFacInf   = 0.1,
(PID.TID 0000.0001) ># hFacSup   = 5.,
(PID.TID 0000.0001) ># implicSurfPress = 0.6,
(PID.TID 0000.0001) ># implicDiv2DFlow = 0.6,
(PID.TID 0000.0001) ># useSingleCpuInput = .TRUE.,
(PID.TID 0000.0001) ># set to eccov4, make sure minbathy=20m first
(PID.TID 0000.0001) ># debuglevel = -1,
(PID.TID 0000.0001) ># useJamartWetPoints = .TRUE.,
(PID.TID 0000.0001) ># writeBinaryPrec=64,
(PID.TID 0000.0001) > /
(PID.TID 0000.0001) >### Elliptic solver parameters ------------------------------------------------
(PID.TID 0000.0001) > &PARM02
(PID.TID 0000.0001) > cg2dMaxIters       = 1000,
(PID.TID 0000.0001) ># cg2dTargetResidual = 1.E-8,
(PID.TID 0000.0001) > cg2dTargetResWunit = 1e-18,
(PID.TID 0000.0001) >#
(PID.TID 0000.0001) >#cg2dMaxIters       = 100,
(PID.TID 0000.0001) >#cg2dTargetResidual = 1.E-5,
(PID.TID 0000.0001) > &
(PID.TID 0000.0001) >### Time stepping parameters --------------------------------------------------
(PID.TID 0000.0001) > &PARM03
(PID.TID 0000.0001) > deltaT      =    240.,
(PID.TID 0000.0001) > nIter0      =  0,
(PID.TID 0000.0001) > nTimeSteps  =  15,
(PID.TID 0000.0001) > pChkptFreq  = 864000.,
(PID.TID 0000.0001) > monitorFreq =   240.,
(PID.TID 0000.0001) > abEps       = 0.1,
(PID.TID 0000.0001) >## It is unclear what these specify.
(PID.TID 0000.0001) > pickupStrictlyMatch = .FALSE.,
(PID.TID 0000.0001) > forcing_In_AB       = .FALSE.,
(PID.TID 0000.0001) > momDissip_In_AB     = .FALSE.,
(PID.TID 0000.0001) > dumpInitAndLast     = .FALSE.,
(PID.TID 0000.0001) > /
(PID.TID 0000.0001) >### Gridding parameters -------------------------------------------------------
(PID.TID 0000.0001) > &PARM04
(PID.TID 0000.0001) > usingSphericalPolarGrid=.TRUE.,
(PID.TID 0000.0001) >## Specify the height of each vertical level.
(PID.TID 0000.0001) > delR =   5.00,   5.00,   5.00,   5.00,   5.00,   5.00,   5.00,   5.00,   5.00,
(PID.TID 0000.0001) >          5.00,   5.00,   5.00,   5.00,   5.00,   5.00,   5.01,   5.01,   5.02,
(PID.TID 0000.0001) >          5.04,   5.07,   5.12,   5.20,   5.31,   5.49,   5.72,   6.04,   6.45,
(PID.TID 0000.0001) >          6.97,   7.62,   8.42,   9.36,  10.46,  11.72,  13.13,  14.70,  16.40,
(PID.TID 0000.0001) >         18.24,  20.18,  22.21,  24.29,  26.43,  28.57,  30.71,  32.79,  34.82,
(PID.TID 0000.0001) >         36.76,  38.60,  40.30,  41.87,  43.28,  44.54,  45.64,  46.58,  47.38,
(PID.TID 0000.0001) >         48.03,  48.55,  48.96,  49.29,  49.53,  49.72,  49.90,  50.11,  50.41,
(PID.TID 0000.0001) >         50.92,  51.69,  52.87,  54.54,  56.79,  59.67,  63.16,  67.26,  71.83,
(PID.TID 0000.0001) >         76.83,  82.11,  87.61,  93.22,  98.91, 104.64, 110.38, 116.12, 121.87,
(PID.TID 0000.0001) >        127.63, 133.38, 139.12, 144.87, 150.63, 156.38, 162.12, 167.87, 173.63,
(PID.TID 0000.0001) >        179.38, 185.12, 190.87, 196.63, 202.38, 208.12, 213.87, 219.63, 225.38,
(PID.TID 0000.0001) >        231.12,
(PID.TID 0000.0001) > xgOrigin=-81.583335876464844,
(PID.TID 0000.0001) > dxSpacing=0.041666666666667,
(PID.TID 0000.0001) > ygOrigin=26.855293273925781,
(PID.TID 0000.0001) > delYFile = 'delYFile',
(PID.TID 0000.0001) > /
(PID.TID 0000.0001) ># -----------------------------------------------------------------------------
(PID.TID 0000.0001) >### Bathymetry files and initial condition files
(PID.TID 0000.0001) > &PARM05
(PID.TID 0000.0001) > bathyFile       = 'bathy.bin',
(PID.TID 0000.0001) > hydrogThetaFile = 'T0_1815x532x100.bin',
(PID.TID 0000.0001) > hydrogSaltFile  = 'S0_1815x532x100.bin',
(PID.TID 0000.0001) > uVelInitFile    = 'U0_1815x532x100.bin',
(PID.TID 0000.0001) > vVelInitFile    = 'V0_1815x532x100.bin',
(PID.TID 0000.0001) > /
(PID.TID 0000.0001) 
(PID.TID 0000.0001)  INI_PARMS ; starts to read PARM01
(PID.TID 0000.0001)  INI_PARMS ; read PARM01 : OK
(PID.TID 0000.0001)  INI_PARMS ; starts to read PARM02
(PID.TID 0000.0001)  INI_PARMS ; read PARM02 : OK
(PID.TID 0000.0001)  INI_PARMS ; starts to read PARM03
(PID.TID 0000.0001)  INI_PARMS ; read PARM03 : OK
(PID.TID 0000.0001)  INI_PARMS ; starts to read PARM04
(PID.TID 0000.0001)  INI_PARMS ; read PARM04 : OK
(PID.TID 0000.0001)  INI_PARMS ; starts to read PARM05
(PID.TID 0000.0001)  INI_PARMS ; read PARM05 : OK
(PID.TID 0000.0001)  INI_PARMS: finished reading file "data"
(PID.TID 0000.0001)  PACKAGES_BOOT: opening data.pkg
(PID.TID 0000.0001)  OPEN_COPY_DATA_FILE: opening file data.pkg
(PID.TID 0000.0001) // =======================================================
(PID.TID 0000.0001) // Parameter file "data.pkg"
(PID.TID 0000.0001) // =======================================================
(PID.TID 0000.0001) ># Packages
(PID.TID 0000.0001) > &PACKAGES
(PID.TID 0000.0001) > useCAL         = .TRUE.,
(PID.TID 0000.0001) > useEXF         = .TRUE.,
(PID.TID 0000.0001) > useKPP         = .TRUE.,
(PID.TID 0000.0001) > useDiagnostics = .TRUE.,
(PID.TID 0000.0001) > useOBCS        = .TRUE.,
(PID.TID 0000.0001) ># useProfiles=.TRUE.,
(PID.TID 0000.0001) > /
(PID.TID 0000.0001) 
(PID.TID 0000.0001)  PACKAGES_BOOT: finished reading data.pkg
(PID.TID 0000.0001)  PACKAGES_BOOT: On/Off package Summary
 --------  pkgs with a standard "usePKG" On/Off switch in "data.pkg":  --------
 pkg/obcs                 compiled   and   used ( useOBCS                  = T )
 pkg/kpp                  compiled   and   used ( useKPP                   = T )
 pkg/cal                  compiled   and   used ( useCAL                   = T )
 pkg/exf                  compiled   and   used ( useEXF                   = T )
 pkg/diagnostics          compiled   and   used ( useDiagnostics           = T )
 -------- pkgs without standard "usePKG" On/Off switch in "data.pkg":  --------
 pkg/generic_advdiff      compiled   and   used ( useGAD                   = T )
 pkg/mom_common           compiled   and   used ( momStepping              = T )
 pkg/mom_vecinv           compiled   and   used ( +vectorInvariantMomentum = T )
 pkg/monitor              compiled   and   used ( monitorFreq > 0.         = T )
 pkg/debug                compiled but not used ( debugMode                = F )
 pkg/exch2                compiled   and   used
 pkg/rw                   compiled   and   used
 pkg/mdsio                compiled   and   used
(PID.TID 0000.0001)  PACKAGES_BOOT: End of package Summary
(PID.TID 0000.0001) 
(PID.TID 0000.0001) CAL_READPARMS: opening data.cal
(PID.TID 0000.0001)  OPEN_COPY_DATA_FILE: opening file data.cal
(PID.TID 0000.0001) // =======================================================
(PID.TID 0000.0001) // Parameter file "data.cal"
(PID.TID 0000.0001) // =======================================================
(PID.TID 0000.0001) >#
(PID.TID 0000.0001) ># *******************
(PID.TID 0000.0001) ># Calendar Parameters
(PID.TID 0000.0001) ># *******************
(PID.TID 0000.0001) > &CAL_NML
(PID.TID 0000.0001) > TheCalendar='gregorian',
(PID.TID 0000.0001) > startDate_1=20080101,
(PID.TID 0000.0001) > startDate_2=000000,
(PID.TID 0000.0001) > calendarDumps = .TRUE.,
(PID.TID 0000.0001) > &
(PID.TID 0000.0001) 
(PID.TID 0000.0001) CAL_READPARMS: finished reading data.cal
(PID.TID 0000.0001) EXF_READPARMS: opening data.exf
(PID.TID 0000.0001)  OPEN_COPY_DATA_FILE: opening file data.exf
(PID.TID 0000.0001) // =======================================================
(PID.TID 0000.0001) // Parameter file "data.exf"
(PID.TID 0000.0001) // =======================================================
(PID.TID 0000.0001) ># *********************
(PID.TID 0000.0001) ># External Forcing Data
(PID.TID 0000.0001) ># *********************
(PID.TID 0000.0001) >#
(PID.TID 0000.0001) > &EXF_NML_01
(PID.TID 0000.0001) >#
(PID.TID 0000.0001) > useAtmWind        = .TRUE.,
(PID.TID 0000.0001) >#
(PID.TID 0000.0001) >#TO COMBINE WITH ALLOW_ZENITH_ANGLE:
(PID.TID 0000.0001) > exf_albedo        = 0.1,
(PID.TID 0000.0001) > useExfZenIncoming = .TRUE.,
(PID.TID 0000.0001) > select_ZenAlbedo  = 1,
(PID.TID 0000.0001) >#
(PID.TID 0000.0001) > ocean_emissivity  = 0.97,
(PID.TID 0000.0001) > ice_emissivity    = 0.95,
(PID.TID 0000.0001) > snow_emissivity   = 0.95,
(PID.TID 0000.0001) > exf_iprec         = 32,
(PID.TID 0000.0001) > exf_iprec_obcs    = 32,
(PID.TID 0000.0001) > exf_yftype        = 'RL',
(PID.TID 0000.0001) > useExfYearlyFields= .TRUE.,
(PID.TID 0000.0001) > useExfCheckRange  = .FALSE.,
(PID.TID 0000.0001) > useRelativeWind   = .TRUE.,
(PID.TID 0000.0001) > &
(PID.TID 0000.0001) >#
(PID.TID 0000.0001) > &EXF_NML_02
(PID.TID 0000.0001) > apressurefile     = 'era_forcing/ERA5_pres',
(PID.TID 0000.0001) > atempfile         = 'era_forcing/ERA5_tmp2m_degC',
(PID.TID 0000.0001) > aqhfile           = 'era_forcing/ERA5_spfh2m',
(PID.TID 0000.0001) > precipfile        = 'era_forcing/ERA5_rain',
(PID.TID 0000.0001) > uwindfile         = 'era_forcing/ERA5_u10m',
(PID.TID 0000.0001) > vwindfile         = 'era_forcing/ERA5_v10m',
(PID.TID 0000.0001) > swdownfile        = 'era_forcing/ERA5_dsw',
(PID.TID 0000.0001) > lwdownfile        = 'era_forcing/ERA5_dlw',
(PID.TID 0000.0001) > tidePotfile       = 'tide_IAU_EARTH',
(PID.TID 0000.0001) > runofffile        = 'runoff1p2472-360x180x12.bin',
(PID.TID 0000.0001) >#
(PID.TID 0000.0001) > apressurestartdate1 = 19920101,
(PID.TID 0000.0001) > apressurestartdate2 = 000000,
(PID.TID 0000.0001) > apressureperiod   = 3600.0,
(PID.TID 0000.0001) >#
(PID.TID 0000.0001) > atempstartdate1   = 19920101,
(PID.TID 0000.0001) > atempstartdate2   = 000000,
(PID.TID 0000.0001) > atempperiod       = 3600.0,
(PID.TID 0000.0001) >#
(PID.TID 0000.0001) > aqhstartdate1     = 19920101,
(PID.TID 0000.0001) > aqhstartdate2     = 000000,
(PID.TID 0000.0001) > aqhperiod         = 3600.0,
(PID.TID 0000.0001) >#
(PID.TID 0000.0001) > precipstartdate1  = 19920101,
(PID.TID 0000.0001) > precipstartdate2  = 003000,
(PID.TID 0000.0001) > precipperiod      = 3600.0,
(PID.TID 0000.0001) >#
(PID.TID 0000.0001) > uwindstartdate1   = 19920101,
(PID.TID 0000.0001) > uwindstartdate2   = 000000,
(PID.TID 0000.0001) > uwindperiod       = 3600.0,
(PID.TID 0000.0001) >#
(PID.TID 0000.0001) > vwindstartdate1   = 19920101,
(PID.TID 0000.0001) > vwindstartdate2   = 000000,
(PID.TID 0000.0001) > vwindperiod       = 3600.0,
(PID.TID 0000.0001) >#
(PID.TID 0000.0001) > swdownstartdate1  = 19920101,
(PID.TID 0000.0001) > swdownstartdate2  = 003000,
(PID.TID 0000.0001) > swdownperiod      = 3600.0,
(PID.TID 0000.0001) >#
(PID.TID 0000.0001) > lwdownstartdate1  = 19920101,
(PID.TID 0000.0001) > lwdownstartdate2  = 003000,
(PID.TID 0000.0001) > lwdownperiod      = 3600.0,
(PID.TID 0000.0001) > tidePotstartdate1  = 19790101,
(PID.TID 0000.0001) > tidePotstartdate2  = 000000,
(PID.TID 0000.0001) > tidePotperiod      = 3600.0,
(PID.TID 0000.0001) ># "*period=-12" specifies monthly-mean forcing
(PID.TID 0000.0001) > runoffperiod      = -12,
(PID.TID 0000.0001) > &
(PID.TID 0000.0001) >#
(PID.TID 0000.0001) > &EXF_NML_03
(PID.TID 0000.0001) > exf_offset_atemp   = 273.15,
(PID.TID 0000.0001) > exf_inscal_swdown  = -1.0,
(PID.TID 0000.0001) > exf_inscal_lwdown  = -1.0,
(PID.TID 0000.0001) ># 1/365/24/3600 yr/s conversion, runoff [m/yr --> m/s]
(PID.TID 0000.0001) > exf_inscal_runoff = 3.1710e-08,
(PID.TID 0000.0001) > &
(PID.TID 0000.0001) >#
(PID.TID 0000.0001) > &EXF_NML_04
(PID.TID 0000.0001) ># runoff_interpMethod = 0,
(PID.TID 0000.0001) >#
(PID.TID 0000.0001) > apressure_lon0    =   0.0000000D0,
(PID.TID 0000.0001) > apressure_lon_inc =   0.2812500D0,
(PID.TID 0000.0001) > apressure_lat0    = -89.7848850D0,
(PID.TID 0000.0001) > apressure_lat_inc = 0.2786766D0,0.2803199D0,0.2806917D0,0.2808328D0,0.2809011D0,0.2809392D0,0.2809626D0,0.2809781D0,
(PID.TID 0000.0001) >                     0.2809888D0,0.2809965D0,0.2810023D0,0.2810067D0,0.2810102D0,0.2810129D0,0.2810151D0,
(PID.TID 0000.0001) >                     33*0.2810258D0,543*0.2810302D0,33*0.2810258D0,
(PID.TID 0000.0001) >                     0.2810151D0,0.2810129D0,0.2810102D0,0.2810067D0,0.2810023D0,0.2809965D0,0.2809888D0,0.2809781D0,
(PID.TID 0000.0001) >                     0.2809626D0,0.2809392D0,0.2809011D0,0.2808328D0,0.2806917D0,0.2803199D0,0.2786766D0,
(PID.TID 0000.0001) > apressure_nlon    = 1280,
(PID.TID 0000.0001) > apressure_nlat    = 640,
(PID.TID 0000.0001) >#
(PID.TID 0000.0001) > atemp_lon0        =   0.0000000D0,
(PID.TID 0000.0001) > atemp_lon_inc     =   0.2812500D0,
(PID.TID 0000.0001) > atemp_lat0        = -89.7848850D0,
(PID.TID 0000.0001) > atemp_lat_inc     = 0.2786766D0,0.2803199D0,0.2806917D0,0.2808328D0,0.2809011D0,0.2809392D0,0.2809626D0,0.2809781D0,
(PID.TID 0000.0001) >                     0.2809888D0,0.2809965D0,0.2810023D0,0.2810067D0,0.2810102D0,0.2810129D0,0.2810151D0,
(PID.TID 0000.0001) >                     33*0.2810258D0,543*0.2810302D0,33*0.2810258D0,
(PID.TID 0000.0001) >                     0.2810151D0,0.2810129D0,0.2810102D0,0.2810067D0,0.2810023D0,0.2809965D0,0.2809888D0,0.2809781D0,
(PID.TID 0000.0001) >                     0.2809626D0,0.2809392D0,0.2809011D0,0.2808328D0,0.2806917D0,0.2803199D0,0.2786766D0,
(PID.TID 0000.0001) > atemp_nlon        = 1280,
(PID.TID 0000.0001) > atemp_nlat        = 640,
(PID.TID 0000.0001) >#
(PID.TID 0000.0001) > aqh_lon0        =   0.0000000D0,
(PID.TID 0000.0001) > aqh_lon_inc     =   0.2812500D0,
(PID.TID 0000.0001) > aqh_lat0        = -89.7848850D0,
(PID.TID 0000.0001) > aqh_lat_inc     = 0.2786766D0,0.2803199D0,0.2806917D0,0.2808328D0,0.2809011D0,0.2809392D0,0.2809626D0,0.2809781D0,
(PID.TID 0000.0001) >                     0.2809888D0,0.2809965D0,0.2810023D0,0.2810067D0,0.2810102D0,0.2810129D0,0.2810151D0,
(PID.TID 0000.0001) >                     33*0.2810258D0,543*0.2810302D0,33*0.2810258D0,
(PID.TID 0000.0001) >                     0.2810151D0,0.2810129D0,0.2810102D0,0.2810067D0,0.2810023D0,0.2809965D0,0.2809888D0,0.2809781D0,
(PID.TID 0000.0001) >                     0.2809626D0,0.2809392D0,0.2809011D0,0.2808328D0,0.2806917D0,0.2803199D0,0.2786766D0,
(PID.TID 0000.0001) > aqh_nlon        = 1280,
(PID.TID 0000.0001) > aqh_nlat        = 640,
(PID.TID 0000.0001) >#
(PID.TID 0000.0001) > precip_lon0        =   0.0000000D0,
(PID.TID 0000.0001) > precip_lon_inc     =   0.2812500D0,
(PID.TID 0000.0001) > precip_lat0        = -89.7848850D0,
(PID.TID 0000.0001) > precip_lat_inc     = 0.2786766D0,0.2803199D0,0.2806917D0,0.2808328D0,0.2809011D0,0.2809392D0,0.2809626D0,0.2809781D0,
(PID.TID 0000.0001) >                     0.2809888D0,0.2809965D0,0.2810023D0,0.2810067D0,0.2810102D0,0.2810129D0,0.2810151D0,
(PID.TID 0000.0001) >                     33*0.2810258D0,543*0.2810302D0,33*0.2810258D0,
(PID.TID 0000.0001) >                     0.2810151D0,0.2810129D0,0.2810102D0,0.2810067D0,0.2810023D0,0.2809965D0,0.2809888D0,0.2809781D0,
(PID.TID 0000.0001) >                     0.2809626D0,0.2809392D0,0.2809011D0,0.2808328D0,0.2806917D0,0.2803199D0,0.2786766D0,
(PID.TID 0000.0001) > precip_nlon        = 1280,
(PID.TID 0000.0001) > precip_nlat        = 640,
(PID.TID 0000.0001) >#
(PID.TID 0000.0001) > uwind_lon0        =   0.0000000D0,
(PID.TID 0000.0001) > uwind_lon_inc     =   0.2812500D0,
(PID.TID 0000.0001) > uwind_lat0        = -89.7848850D0,
(PID.TID 0000.0001) > uwind_lat_inc     = 0.2786766D0,0.2803199D0,0.2806917D0,0.2808328D0,0.2809011D0,0.2809392D0,0.2809626D0,0.2809781D0,
(PID.TID 0000.0001) >                     0.2809888D0,0.2809965D0,0.2810023D0,0.2810067D0,0.2810102D0,0.2810129D0,0.2810151D0,
(PID.TID 0000.0001) >                     33*0.2810258D0,543*0.2810302D0,33*0.2810258D0,
(PID.TID 0000.0001) >                     0.2810151D0,0.2810129D0,0.2810102D0,0.2810067D0,0.2810023D0,0.2809965D0,0.2809888D0,0.2809781D0,
(PID.TID 0000.0001) >                     0.2809626D0,0.2809392D0,0.2809011D0,0.2808328D0,0.2806917D0,0.2803199D0,0.2786766D0,
(PID.TID 0000.0001) > uwind_nlon        = 1280,
(PID.TID 0000.0001) > uwind_nlat        = 640,
(PID.TID 0000.0001) >#
(PID.TID 0000.0001) > vwind_lon0        =   0.0000000D0,
(PID.TID 0000.0001) > vwind_lon_inc     =   0.2812500D0,
(PID.TID 0000.0001) > vwind_lat0        = -89.7848850D0,
(PID.TID 0000.0001) > vwind_lat_inc     = 0.2786766D0,0.2803199D0,0.2806917D0,0.2808328D0,0.2809011D0,0.2809392D0,0.2809626D0,0.2809781D0,
(PID.TID 0000.0001) >                     0.2809888D0,0.2809965D0,0.2810023D0,0.2810067D0,0.2810102D0,0.2810129D0,0.2810151D0,
(PID.TID 0000.0001) >                     33*0.2810258D0,543*0.2810302D0,33*0.2810258D0,
(PID.TID 0000.0001) >                     0.2810151D0,0.2810129D0,0.2810102D0,0.2810067D0,0.2810023D0,0.2809965D0,0.2809888D0,0.2809781D0,
(PID.TID 0000.0001) >                     0.2809626D0,0.2809392D0,0.2809011D0,0.2808328D0,0.2806917D0,0.2803199D0,0.2786766D0,
(PID.TID 0000.0001) > vwind_nlon        = 1280,
(PID.TID 0000.0001) > vwind_nlat        = 640,
(PID.TID 0000.0001) >#
(PID.TID 0000.0001) > swdown_lon0        =   0.0000000D0,
(PID.TID 0000.0001) > swdown_lon_inc     =   0.2812500D0,
(PID.TID 0000.0001) > swdown_lat0        = -89.7848850D0,
(PID.TID 0000.0001) > swdown_lat_inc     = 0.2786766D0,0.2803199D0,0.2806917D0,0.2808328D0,0.2809011D0,0.2809392D0,0.2809626D0,0.2809781D0,
(PID.TID 0000.0001) >                     0.2809888D0,0.2809965D0,0.2810023D0,0.2810067D0,0.2810102D0,0.2810129D0,0.2810151D0,
(PID.TID 0000.0001) >                     33*0.2810258D0,543*0.2810302D0,33*0.2810258D0,
(PID.TID 0000.0001) >                     0.2810151D0,0.2810129D0,0.2810102D0,0.2810067D0,0.2810023D0,0.2809965D0,0.2809888D0,0.2809781D0,
(PID.TID 0000.0001) >                     0.2809626D0,0.2809392D0,0.2809011D0,0.2808328D0,0.2806917D0,0.2803199D0,0.2786766D0,
(PID.TID 0000.0001) > swdown_nlon        = 1280,
(PID.TID 0000.0001) > swdown_nlat        = 640,
(PID.TID 0000.0001) >#
(PID.TID 0000.0001) > lwdown_lon0        =   0.0000000D0,
(PID.TID 0000.0001) > lwdown_lon_inc     =   0.2812500D0,
(PID.TID 0000.0001) > lwdown_lat0        = -89.7848850D0,
(PID.TID 0000.0001) > lwdown_lat_inc     = 0.2786766D0,0.2803199D0,0.2806917D0,0.2808328D0,0.2809011D0,0.2809392D0,0.2809626D0,0.2809781D0,
(PID.TID 0000.0001) >                     0.2809888D0,0.2809965D0,0.2810023D0,0.2810067D0,0.2810102D0,0.2810129D0,0.2810151D0,
(PID.TID 0000.0001) >                     33*0.2810258D0,543*0.2810302D0,33*0.2810258D0,
(PID.TID 0000.0001) >                     0.2810151D0,0.2810129D0,0.2810102D0,0.2810067D0,0.2810023D0,0.2809965D0,0.2809888D0,0.2809781D0,
(PID.TID 0000.0001) >                     0.2809626D0,0.2809392D0,0.2809011D0,0.2808328D0,0.2806917D0,0.2803199D0,0.2786766D0,
(PID.TID 0000.0001) > lwdown_nlon        = 1280,
(PID.TID 0000.0001) > lwdown_nlat        = 640,
(PID.TID 0000.0001) >#
(PID.TID 0000.0001) > tidePot_lon0       = 0.0D0,
(PID.TID 0000.0001) > tidePot_lon_inc    = 1.0D0,
(PID.TID 0000.0001) > tidePot_lat0       = -90.0D0,
(PID.TID 0000.0001) > tidePot_lat_inc    = 180*1.0D0,
(PID.TID 0000.0001) > tidePot_nlon       = 360,
(PID.TID 0000.0001) > tidePot_nlat       = 181,
(PID.TID 0000.0001) >#
(PID.TID 0000.0001) > runoff_lon0       = 0.50D0,
(PID.TID 0000.0001) > runoff_lon_inc    = 1.0D0,
(PID.TID 0000.0001) > runoff_lat0       = -89.5D0,
(PID.TID 0000.0001) > runoff_lat_inc    = 179*1.,
(PID.TID 0000.0001) > runoff_nlon       = 360,
(PID.TID 0000.0001) > runoff_nlat       = 180,
(PID.TID 0000.0001) > &
(PID.TID 0000.0001) >#
(PID.TID 0000.0001) > &EXF_NML_OBCS
(PID.TID 0000.0001) >  obcsSstartdate1   = 20071215,
(PID.TID 0000.0001) >  obcsSstartdate2   = 060000,
(PID.TID 0000.0001) >  obcsSperiod       = 2629800.0,
(PID.TID 0000.0001) >#
(PID.TID 0000.0001) >  obcsNstartdate1   = 20071215,
(PID.TID 0000.0001) >  obcsNstartdate2   = 060000,
(PID.TID 0000.0001) >  obcsNperiod       = 2629800.0,
(PID.TID 0000.0001) > &
(PID.TID 0000.0001) 
(PID.TID 0000.0001) EXF_READPARMS: reading EXF_NML_01
(PID.TID 0000.0001) EXF_READPARMS: reading EXF_NML_02
(PID.TID 0000.0001) EXF_READPARMS: reading EXF_NML_03
(PID.TID 0000.0001) EXF_READPARMS: reading EXF_NML_04
(PID.TID 0000.0001) EXF_READPARMS: reading EXF_NML_OBCS
(PID.TID 0000.0001) EXF_READPARMS: finished reading data.exf
(PID.TID 0000.0001)  OBCS_READPARMS: opening data.obcs
(PID.TID 0000.0001)  OPEN_COPY_DATA_FILE: opening file data.obcs
(PID.TID 0000.0001) // =======================================================
(PID.TID 0000.0001) // Parameter file "data.obcs"
(PID.TID 0000.0001) // =======================================================
(PID.TID 0000.0001) ># ***************
(PID.TID 0000.0001) ># Open boundaries
(PID.TID 0000.0001) ># ***************
(PID.TID 0000.0001) > &OBCS_PARM01
(PID.TID 0000.0001) >OB_Jnorth = 1815*531,
(PID.TID 0000.0001) >OB_Jsouth = 1815*2,
(PID.TID 0000.0001) >#
(PID.TID 0000.0001) > useOBCSprescribe=.TRUE.,
(PID.TID 0000.0001) ># useOBCSsponge=.true.,
(PID.TID 0000.0001) > OBCS_monSelect = 3,
(PID.TID 0000.0001) ># >0: use 1rst O. upwind adv-scheme @ OB (=1: only if outflow)
(PID.TID 0000.0001) > OBCS_u1_adv_T = 1,
(PID.TID 0000.0001) > OBCS_u1_adv_S = 1,
(PID.TID 0000.0001) >#
(PID.TID 0000.0001) > OBSsFile='OBSs_1815x100x26.bin',
(PID.TID 0000.0001) > OBStFile='OBSt_1815x100x26.bin',
(PID.TID 0000.0001) > OBSuFile='OBSu_1815x100x26.bin',
(PID.TID 0000.0001) > OBSvFile='OBSv_1815x100x26.bin',
(PID.TID 0000.0001) >#
(PID.TID 0000.0001) > OBNsFile='OBNs_1815x100x26.bin',
(PID.TID 0000.0001) > OBNtFile='OBNt_1815x100x26.bin',
(PID.TID 0000.0001) > OBNuFile='OBNu_1815x100x26.bin',
(PID.TID 0000.0001) > OBNvFile='OBNv_1815x100x26.bin',
(PID.TID 0000.0001) ># Balancing
(PID.TID 0000.0001) > useOBCSbalance = .TRUE.,
(PID.TID 0000.0001) > OBCS_balanceFacN = -1,
(PID.TID 0000.0001) > OBCS_balanceFacS = -1,
(PID.TID 0000.0001) >## *****************************************
(PID.TID 0000.0001) >## Tidal BC parameters
(PID.TID 0000.0001) >## *****************************************
(PID.TID 0000.0001) > useOBCStides = .TRUE.,
(PID.TID 0000.0001) >##components   = M2       S2     N2       K2       K1      O1       P1       Q1       Mf         Mm
(PID.TID 0000.0001) >##periods (hr) = 12.4206  12     12.6583  11.9672  23.9345 25.8193  24.0659  26.8684  327.8599   661.31
(PID.TID 0000.0001) >##period(sec)  = 44714.165 43200.001 45570.054 43082.05 86164.077 92949.636 86637.2 96726.086 1180295.5 2380715.9
(PID.TID 0000.0001) >##components      m2        s2        n2        k2        k1        o1        p1        q1        mf        mm        m4        ms4       mn4
(PID.TID 0000.0001) >##period (hr): 12.420601 12.000000 12.658348 11.967236 23.934466 25.819343 24.065889 26.868357 327.859874 661.309962 6.210303 6.103339 6.269178
(PID.TID 0000.0001) >##period (s):  44714.165192 43200.001287 45570.053512 43082.050319 86164.077005 92949.635701 86637.199772 96726.085703 1180295.545550 2380715.863587 22357.090551 21972.021930 22569.042448
(PID.TID 0000.0001) >##components      m2        s2        n2        k2        k1        o1        p1        q1        m4        ms4         mn4        mm           mf
(PID.TID 0000.0001) > tidalPeriod  = 44714.165 43200.001 45570.054 43082.050 86164.077 92949.636 86637.200 96726.086 22357.091 21972.022 22569.042 2380715.864 1180295.546,
(PID.TID 0000.0001) > OBSamFile='OBSvam_1815x13.bin',
(PID.TID 0000.0001) > OBNamFile='OBNvam_1815x13.bin',
(PID.TID 0000.0001) > OBSphFile='OBSvph_1815x13.bin',
(PID.TID 0000.0001) > OBNphFile='OBNvph_1815x13.bin',
(PID.TID 0000.0001) > OBEamFile='OBEuam_532x13.bin',
(PID.TID 0000.0001) > OBEphFile='OBEuph_532x13.bin',
(PID.TID 0000.0001) > &
(PID.TID 0000.0001) ># *****************************************
(PID.TID 0000.0001) ># Sponge Layer Parameters.
(PID.TID 0000.0001) ># *****************************************
(PID.TID 0000.0001) > &OBCS_PARM03
(PID.TID 0000.0001) ># Urelaxobcsinner=2629800.E0,
(PID.TID 0000.0001) ># Urelaxobcsbound=43200.E0,
(PID.TID 0000.0001) >#
(PID.TID 0000.0001) ># Vrelaxobcsinner=2629800.E0,
(PID.TID 0000.0001) ># Vrelaxobcsbound=43200.E0,
(PID.TID 0000.0001) >#
(PID.TID 0000.0001) ># spongeThickness=16,
(PID.TID 0000.0001) > &
(PID.TID 0000.0001) 
(PID.TID 0000.0001)  OBCS_READPARMS: finished reading data.obcs
(PID.TID 0000.0001)  OB_indexUnset = /* unset OB index value (i.e. no OB) */
(PID.TID 0000.0001)                       0
(PID.TID 0000.0001)     ;
(PID.TID 0000.0001)  Northern OB global indices : OB_Jnorth =
(PID.TID 0000.0001)  1815 @      531                            /* I =  1:*** */
(PID.TID 0000.0001)  Southern OB global indices : OB_Jsouth =
(PID.TID 0000.0001)  1815 @        2                            /* I =  1:*** */
(PID.TID 0000.0001)  Eastern  OB global indices : OB_Ieast =
(PID.TID 0000.0001)   532 @        0                            /* J =  1:532 */
(PID.TID 0000.0001)  Western  OB global indices : OB_Iwest =
(PID.TID 0000.0001)   532 @        0                            /* J =  1:532 */
(PID.TID 0000.0001) 
(PID.TID 0000.0001)  KPP_READPARMS: opening data.kpp
(PID.TID 0000.0001)  OPEN_COPY_DATA_FILE: opening file data.kpp
(PID.TID 0000.0001) // =======================================================
(PID.TID 0000.0001) // Parameter file "data.kpp"
(PID.TID 0000.0001) // =======================================================
(PID.TID 0000.0001) ># KPP parameters
(PID.TID 0000.0001) > &KPP_PARM01
(PID.TID 0000.0001) >### KPPmixingMaps   = .FALSE.,
(PID.TID 0000.0001) >### KPPwriteState   = .FALSE.,
(PID.TID 0000.0001) >### kpp_dumpFreq    = 0.,
(PID.TID 0000.0001) >### kpp_tavefreq    = 0.,
(PID.TID 0000.0001) >### Ricr            = 0.3559,
(PID.TID 0000.0001) >### Riinfty         = 0.6998,
(PID.TID 0000.0001) > &
(PID.TID 0000.0001) 
(PID.TID 0000.0001)  KPP_READPARMS ; starts to read KPP_PARM01
(PID.TID 0000.0001)  KPP_READPARMS ; read KPP_PARM01 : OK
(PID.TID 0000.0001)  KPP_READPARMS: finished reading data.kpp
(PID.TID 0000.0001)  DIAGNOSTICS_READPARMS: opening data.diagnostics
(PID.TID 0000.0001)  OPEN_COPY_DATA_FILE: opening file data.diagnostics
(PID.TID 0000.0001) // =======================================================
(PID.TID 0000.0001) // Parameter file "data.diagnostics"
(PID.TID 0000.0001) // =======================================================
(PID.TID 0000.0001) ># Diagnostic Package Choices
(PID.TID 0000.0001) >#-----------------
(PID.TID 0000.0001) ># for each output-stream:
(PID.TID 0000.0001) >#  filename(n) : prefix of the output file name (only 8.c long) for outp.stream n
(PID.TID 0000.0001) >#  frequency(n):< 0 : write snap-shot output every multiple of |frequency| (iter)
(PID.TID 0000.0001) >#               > 0 : write time-average output every multiple of frequency (iter)
(PID.TID 0000.0001) >#  levels(:,n) : list of levels to write to file (Notes: declared as REAL)
(PID.TID 0000.0001) >#                 when this entry is missing, select all common levels of this list
(PID.TID 0000.0001) >#  fields(:,n) : list of diagnostics fields (8.c) (see "available_diagnostics" file
(PID.TID 0000.0001) >#                 for the list of all available diag. in this particular config)
(PID.TID 0000.0001) >#--------------------------------------------------------------------
(PID.TID 0000.0001) >#
(PID.TID 0000.0001) > &diagnostics_list
(PID.TID 0000.0001) >#
(PID.TID 0000.0001) >   dumpatlast = .TRUE.,
(PID.TID 0000.0001) >#
(PID.TID 0000.0001) >#---
(PID.TID 0000.0001) >  frequency(1) = 3600.0,
(PID.TID 0000.0001) >   fields(1:5,1) = 'ETAN', 'oceTAUX', 'oceTAUY', 'EXFuwind', 'EXFvwind',
(PID.TID 0000.0001) >   filename(1) = 'diags/surface',
(PID.TID 0000.0001) >#---
(PID.TID 0000.0001) >  frequency(2) = 2592000.0,
(PID.TID 0000.0001) >   fields(1:9,2)='THETA','SALT','UVEL','VVEL','WVEL','UVELSQ','VVELSQ','WTHMASS','WSLTMASS',
(PID.TID 0000.0001) >   filename(2) = 'diags/interior',
(PID.TID 0000.0001) >#   levels(1:55,2) =  1., 2., 3., 4., 5., 6., 7., 8., 9.,10.,11.,13.,15.,
(PID.TID 0000.0001) >#                     17.,19.,21.,23.,25.,27.,29.,31.,33.,35.,37.,39.,41.,43.,45.,
(PID.TID 0000.0001) >#                     47.,49.,51.,53.,55.,57.,59.,61.,63.,65.,67.,69.,71.,73.,75.,
(PID.TID 0000.0001) >#                     77.,79.,81.,83.,85.,87.,89.,91.,93.,95.,97.,99.,
(PID.TID 0000.0001) > /
(PID.TID 0000.0001) >#
(PID.TID 0000.0001) >#
(PID.TID 0000.0001) ># Parameter for Diagnostics of per level statistics:
(PID.TID 0000.0001) >#-----------------
(PID.TID 0000.0001) ># for each output-stream:
(PID.TID 0000.0001) >#  stat_fname(n) : prefix of the output file name (only 8.c long) for outp.stream n
(PID.TID 0000.0001) >#  stat_freq(n):< 0 : write snap-shot output every |stat_freq| seconds
(PID.TID 0000.0001) >#               > 0 : write time-average output every stat_freq seconds
(PID.TID 0000.0001) >#  stat_phase(n)    : write at time = stat_phase + multiple of |stat_freq|
(PID.TID 0000.0001) >#  stat_region(:,n) : list of "regions" (default: 1 region only=global)
(PID.TID 0000.0001) >#  stat_fields(:,n) : list of diagnostics fields (8.c) (see "available_diagnostics.log"
(PID.TID 0000.0001) >#                 file for the list of all available diag. in this particular config)
(PID.TID 0000.0001) >#-----------------
(PID.TID 0000.0001) > &DIAG_STATIS_PARMS
(PID.TID 0000.0001) ># diagSt_regMaskFile='basin_masks_eccollc_90x50.bin',
(PID.TID 0000.0001) ># nSetRegMskFile=1,
(PID.TID 0000.0001) ># set_regMask(1)= 1,  1,  1,  1,  1,  1,  1,  1,  1,
(PID.TID 0000.0001) >#                 1,  1,  1,  1,  1,  1,  1,  1
(PID.TID 0000.0001) ># val_regMask(1)= 1., 2., 3., 4., 5., 6., 7., 8., 9.,
(PID.TID 0000.0001) >#                10.,11.,12.,13.,14.,15.,16.,17.
(PID.TID 0000.0001) >##---
(PID.TID 0000.0001) ># stat_fields(1,1)= 'ETAN    ','ETANSQ  ','DETADT2 ',
(PID.TID 0000.0001) >#                   'UVEL    ','VVEL    ','WVEL    ',
(PID.TID 0000.0001) >#                   'THETA   ','SALT    ',
(PID.TID 0000.0001) >#    stat_fname(1)= 'dynStDiag',
(PID.TID 0000.0001) >#     stat_freq(1)= 3153600.,
(PID.TID 0000.0001) ># stat_region(1,1)=  1, 2, 3, 4, 5, 6, 7, 8, 9,
(PID.TID 0000.0001) >#                   10,11,12,13,14,15,16,17
(PID.TID 0000.0001) >##---
(PID.TID 0000.0001) ># stat_fields(1,2)= 'oceTAUX ','oceTAUY ',
(PID.TID 0000.0001) >#                   'surForcT','surForcS','TFLUX   ','SFLUX   ',
(PID.TID 0000.0001) >#                   'oceQnet ','oceSflux','oceFWflx',
(PID.TID 0000.0001) >#    stat_fname(2)= 'surfStDiag',
(PID.TID 0000.0001) >#     stat_freq(2)= 3153600.,
(PID.TID 0000.0001) ># stat_region(1,2)=  1, 2, 3, 4, 5, 6, 7, 8, 9,
(PID.TID 0000.0001) >#                   10,11,12,13,14,15,16,17
(PID.TID 0000.0001) > /
(PID.TID 0000.0001) 
(PID.TID 0000.0001) S/R DIAGNOSTICS_READPARMS, read namelist "diagnostics_list": start
(PID.TID 0000.0001) S/R DIAGNOSTICS_READPARMS, read namelist "diagnostics_list": OK
(PID.TID 0000.0001) S/R DIAGNOSTICS_READPARMS, read namelist "DIAG_STATIS_PARMS": start
(PID.TID 0000.0001) S/R DIAGNOSTICS_READPARMS, read namelist "DIAG_STATIS_PARMS": OK
(PID.TID 0000.0001)  DIAGNOSTICS_READPARMS: global parameter summary:
(PID.TID 0000.0001)  dumpAtLast = /* always write time-ave diags at the end */
(PID.TID 0000.0001)                   T
(PID.TID 0000.0001)     ;
(PID.TID 0000.0001)  diag_mnc =   /* write NetCDF output files */
(PID.TID 0000.0001)                   F
(PID.TID 0000.0001)     ;
(PID.TID 0000.0001)  useMissingValue = /* put MissingValue where mask = 0 */
(PID.TID 0000.0001)                   F
(PID.TID 0000.0001)     ;
(PID.TID 0000.0001)  diagCG_maxIters = /* max number of iters in diag_cg2d */
(PID.TID 0000.0001)                    1000
(PID.TID 0000.0001)     ;
(PID.TID 0000.0001)  diagCG_resTarget = /* residual target for diag_cg2d */
(PID.TID 0000.0001)                 1.000000000000000E-07
(PID.TID 0000.0001)     ;
(PID.TID 0000.0001)  diagCG_pcOffDFac = /* preconditioner off-diagonal factor */
(PID.TID 0000.0001)                 9.611687812379854E-01
(PID.TID 0000.0001)     ;
(PID.TID 0000.0001) -----------------------------------------------------
(PID.TID 0000.0001)  DIAGNOSTICS_READPARMS: active diagnostics summary:
(PID.TID 0000.0001) -----------------------------------------------------
(PID.TID 0000.0001) Creating Output Stream: diags/surface
(PID.TID 0000.0001) Output Frequency:       3600.000000 ; Phase:           0.000000
(PID.TID 0000.0001)  Averaging Freq.:       3600.000000 , Phase:           0.000000 , Cycle:   1
(PID.TID 0000.0001)  missing value: -9.990000000000E+02
(PID.TID 0000.0001)  Levels:    will be set later
(PID.TID 0000.0001)  Fields:    ETAN     oceTAUX  oceTAUY  EXFuwind EXFvwind
(PID.TID 0000.0001) Creating Output Stream: diags/interior
(PID.TID 0000.0001) Output Frequency:    2592000.000000 ; Phase:           0.000000
(PID.TID 0000.0001)  Averaging Freq.:    2592000.000000 , Phase:           0.000000 , Cycle:   1
(PID.TID 0000.0001)  missing value: -9.990000000000E+02
(PID.TID 0000.0001)  Levels:    will be set later
(PID.TID 0000.0001)  Fields:    THETA    SALT     UVEL     VVEL     WVEL     UVELSQ   VVELSQ   WTHMASS  WSLTMASS
(PID.TID 0000.0001) -----------------------------------------------------
(PID.TID 0000.0001)  DIAGNOSTICS_READPARMS: statistics diags. summary:
(PID.TID 0000.0001) -----------------------------------------------------
(PID.TID 0000.0001) 
(PID.TID 0000.0001) SET_PARMS: done
(PID.TID 0000.0001)  MDS_READVEC_LOC: open file: delYFile
(PID.TID 0000.0001) S/R LOAD_GRID_SPACING: delY loaded from file: delYFile
(PID.TID 0000.0001) Enter INI_VERTICAL_GRID: setInterFDr=    T ; setCenterDr=    F
(PID.TID 0000.0001) %MON XC_max                       =  -5.9791692097973E+00
(PID.TID 0000.0001) %MON XC_min                       =  -8.1562502543132E+01
(PID.TID 0000.0001) %MON XC_mean                      =  -4.3137201855846E+01
(PID.TID 0000.0001) %MON XC_sd                        =   2.0424998826490E+01
(PID.TID 0000.0001) %MON XG_max                       =  -6.0000025431306E+00
(PID.TID 0000.0001) %MON XG_min                       =  -8.1583335876465E+01
(PID.TID 0000.0001) %MON XG_mean                      =  -4.3158035189179E+01
(PID.TID 0000.0001) %MON XG_sd                        =   2.0424998826490E+01
(PID.TID 0000.0001) %MON DXC_max                      =   4.1321680787049E+03
(PID.TID 0000.0001) %MON DXC_min                      =   3.3626505081640E+03
(PID.TID 0000.0001) %MON DXC_mean                     =   3.7688379354867E+03
(PID.TID 0000.0001) %MON DXC_sd                       =   2.2123866065857E+02
(PID.TID 0000.0001) %MON DXF_max                      =   4.1321680787049E+03
(PID.TID 0000.0001) %MON DXF_min                      =   3.3626505081640E+03
(PID.TID 0000.0001) %MON DXF_mean                     =   3.7688379354867E+03
(PID.TID 0000.0001) %MON DXF_sd                       =   2.2123866065857E+02
(PID.TID 0000.0001) %MON DXG_max                      =   4.1327922661025E+03
(PID.TID 0000.0001) %MON DXG_min                      =   3.3634327493196E+03
(PID.TID 0000.0001) %MON DXG_mean                     =   3.7695610776573E+03
(PID.TID 0000.0001) %MON DXG_sd                       =   2.2119398199636E+02
(PID.TID 0000.0001) %MON DXV_max                      =   4.1327922661025E+03
(PID.TID 0000.0001) %MON DXV_min                      =   3.3634327493196E+03
(PID.TID 0000.0001) %MON DXV_mean                     =   3.7695610776573E+03
(PID.TID 0000.0001) %MON DXV_sd                       =   2.2119398199636E+02
(PID.TID 0000.0001) %MON YC_max                       =   4.3456317901611E+01
(PID.TID 0000.0001) %MON YC_min                       =   2.6872378349304E+01
(PID.TID 0000.0001) %MON YC_mean                      =   3.5275583727019E+01
(PID.TID 0000.0001) %MON YC_sd                        =   4.7474247172398E+00
(PID.TID 0000.0001) %MON YG_max                       =   4.3442249298096E+01
(PID.TID 0000.0001) %MON YG_min                       =   2.6855293273926E+01
(PID.TID 0000.0001) %MON YG_mean                      =   3.5259938400870E+01
(PID.TID 0000.0001) %MON YG_sd                        =   4.7482908185653E+00
(PID.TID 0000.0001) %MON DYC_max                      =   3.7984208896988E+03
(PID.TID 0000.0001) %MON DYC_min                      =   3.1290718017248E+03
(PID.TID 0000.0001) %MON DYC_mean                     =   3.4788279395744E+03
(PID.TID 0000.0001) %MON DYC_sd                       =   1.9225943821366E+02
(PID.TID 0000.0001) %MON DYF_max                      =   3.7989510252033E+03
(PID.TID 0000.0001) %MON DYF_min                      =   3.1282235849176E+03
(PID.TID 0000.0001) %MON DYF_mean                     =   3.4788156621358E+03
(PID.TID 0000.0001) %MON DYF_sd                       =   1.9277710102670E+02
(PID.TID 0000.0001) %MON DYG_max                      =   3.7989510252033E+03
(PID.TID 0000.0001) %MON DYG_min                      =   3.1282235849176E+03
(PID.TID 0000.0001) %MON DYG_mean                     =   3.4788156621358E+03
(PID.TID 0000.0001) %MON DYG_sd                       =   1.9277710102670E+02
(PID.TID 0000.0001) %MON DYU_max                      =   3.7984208896988E+03
(PID.TID 0000.0001) %MON DYU_min                      =   3.1290718017248E+03
(PID.TID 0000.0001) %MON DYU_mean                     =   3.4788279395744E+03
(PID.TID 0000.0001) %MON DYU_sd                       =   1.9225943821366E+02
(PID.TID 0000.0001) %MON RA_max                       =   1.5697903926271E+07
(PID.TID 0000.0001) %MON RA_min                       =   1.0519122521772E+07
(PID.TID 0000.0001) %MON RA_mean                      =   1.3153740588860E+07
(PID.TID 0000.0001) %MON RA_sd                        =   1.4919356433086E+06
(PID.TID 0000.0001) %MON RAW_max                      =   1.5697903926271E+07
(PID.TID 0000.0001) %MON RAW_min                      =   1.0519122521772E+07
(PID.TID 0000.0001) %MON RAW_mean                     =   1.3153740588860E+07
(PID.TID 0000.0001) %MON RAW_sd                       =   1.4919356433086E+06
(PID.TID 0000.0001) %MON RAS_max                      =   1.5693341326465E+07
(PID.TID 0000.0001) %MON RAS_min                      =   1.0524423130684E+07
(PID.TID 0000.0001) %MON RAS_mean                     =   1.3156063218928E+07
(PID.TID 0000.0001) %MON RAS_sd                       =   1.4887747834009E+06
(PID.TID 0000.0001) %MON RAZ_max                      =   1.5693341326465E+07
(PID.TID 0000.0001) %MON RAZ_min                      =   1.0524423130684E+07
(PID.TID 0000.0001) %MON RAZ_mean                     =   1.3156063218928E+07
(PID.TID 0000.0001) %MON RAZ_sd                       =   1.4887747834009E+06
(PID.TID 0000.0001) %MON AngleCS_max                  =   1.0000000000000E+00
(PID.TID 0000.0001) %MON AngleCS_min                  =   1.0000000000000E+00
(PID.TID 0000.0001) %MON AngleCS_mean                 =   1.0000000000000E+00
(PID.TID 0000.0001) %MON AngleCS_sd                   =   1.1102230246252E-16
(PID.TID 0000.0001) %MON AngleSN_max                  =   0.0000000000000E+00
(PID.TID 0000.0001) %MON AngleSN_min                  =   0.0000000000000E+00
(PID.TID 0000.0001) %MON AngleSN_mean                 =   0.0000000000000E+00
(PID.TID 0000.0001) %MON AngleSN_sd                   =   0.0000000000000E+00
(PID.TID 0000.0001)  MDS_READ_FIELD: opening global file: bathy.bin
(PID.TID 0000.0001) // =======================================================
(PID.TID 0000.0001) // Field Model R_low (ini_masks_etc)
(PID.TID 0000.0001) // CMIN =         -5.628649414062500E+03
(PID.TID 0000.0001) // CMAX =         -5.000000000000000E+00
(PID.TID 0000.0001) // CINT =          2.082833116319445E+02
(PID.TID 0000.0001) // SYMBOLS (CMIN->CMAX): -abcdefghijklmnopqrstuvwxyz+
(PID.TID 0000.0001) //                  0.0: .
(PID.TID 0000.0001) // RANGE I (Lo:Hi:Step):(    -3:   334:     1)
(PID.TID 0000.0001) // RANGE J (Lo:Hi:Step):(    32:    -3:    -1)
(PID.TID 0000.0001) // RANGE K (Lo:Hi:Step):(   1:   1:   1)
(PID.TID 0000.0001) // =======================================================
(PID.TID 0000.0001) K =   1
(PID.TID 0000.0001) //                I=6       I=16      I=26      I=36      I=38      I=48      I=58      I=68      I=70      I=80      I=90      I=100     I=102     I=112     I=122     I=132     I=134     I=144     I=154     I=164     I=166     I=176     I=186     I=196     I=198     I=208     I=218     I=228     I=230     I=240     I=250     I=260     I=262     I=272     I=282     I=292     I=294     I=304     I=314     I=324     I=334
(PID.TID 0000.0001) // |--J--|321012345|789012345|789012345|789012345|701234567|901234567|901234567|901234567|903456789|123456789|123456789|123456789|123678901|345678901|345678901|345678901|345690123|567890123|567890123|567890123|567892345|789012345|789012345|789012345|789012567|901234567|901234567|901234567|901234589|123456789|123456789|123456789|123456781|345678901|345678901|345678901|345678901|567890123|567890123|567890123|567890123|
(PID.TID 0000.0001) //     32 ..............................+++++++++++++++++++++zzzyyyyxwwwwxxxxxxxxxwwwwwwwwwwwwwwwwwwwwwvvvvvvvvvvvvvvvvvvvvvvvvuuuuuuvvuuuuuuuuuuvvvvuuvuuuusqhdcccccccccccccccccccccccccdcccccccccccccdcccccccddddddddddddddddddddeeeeeefffeeeeeeeeeeeeeeeeddddeeeedddddddddccccccccccccccccddccccccccccccccccccbbbbabbaaaaa---aaaaaaaaa---aaaaaa--aaaaaaaaaaaa--------------aa--aaaaaaabbaaaaaabbaaaabbbaaabbbbbaabcdccbcbddcbbbbc
(PID.TID 0000.0001) //     31 ...............................++++++++++++++++++++zzzyyyyxxwwwxxxxxxxxxxwwwwwwwwwwwwwwwwwwwwvvvvvvvvvvvvvvvvvvvvvvvuuuuuuuvuuuuuuuuuuuuvvvvvvuuustngdcccdcddddccccddddccccdddddcccccccccccccdcdcccccdddddddddddddddddddddeeeeffffeeeeeeeeeeeeeeeeddddeeeeddddddddddcccccccccccccccddddccccccccccccccccbbbbaaaaaaaaa--aaaaaaaaaa--a--aaa--a--aaaaaaaaa--------------a--aaaaaaaabaaaaaaabaaaabbbbaaaabbbbbabccccbbcdcbbbbbb
(PID.TID 0000.0001) //     30 ...............................++++++++++++++++++++zzzyyyyxxwwwxxxxxxxxxxxwwwwwwwwwwwwwwwwwwwvvvvvvvvvvvvvvvvvvvvvuuuuuuuuuuuuuuuuuuvvuuuuuuvvuuutpgedccdddddddccccddddccccddcccccccccccccccdddddccccdddddddddddddddddddddeeeffffffeeeeeeeeeeeeeeeddddeeeeddddddddddcccccccdccccccddddcccccccccccccccccbbbbaaaaaaaaa--aaaaaaaaaaaaa--aaaaaa--aaaaaaaaaa--------a----aa--aaaaaaaaaaaaaaaaaaaabbbbaaaabbbbbbbbbccbcedbbbbbbc
(PID.TID 0000.0001) //     29 ...............................++++++++++++++++++++zzzyyyyxxwwwxxxxxxxxxxxxwwwwwwwxwwwwwwwwwwwvvvvvvvvvvvvvvvvvvvuuuuuuuvvuuuuuuvvuuvvvuuuuuuvuuutojecccccccddddccccddddcccccccccccccccccccddddddddddddddddddddddddddddddeeeeefffffeeeeeeeeeeeeeeeddddeeeedddddddddccccccccdddddccddddcccccccccccccccccbbbbaaaaaaaa-----aaaaaaaaaaaa----aaaa----aaaaaaaaaaaa---a--aaaa-aaaaaaaaaaaaaaaaaaaabbbbbbaaabbbbbbbbbbbbdebbbbbbbc
(PID.TID 0000.0001) //     28 ................................+++++++++++++++++++zzzyyyyxxwwxxxxxxxxxxxxxxwwwwwwxxwwwwwwwwwwvvvvvvvvvvvvvvvvvvuuuuuuuuuvuuuuuuuvuuvvvvuuuuuvuuttolfcccccccddddccccddddcccccccccccccccdcccddddcddddddddddddddddddddddddeeeeeefffffeeeeeeeeeeeeeedddddeeeddddddddddccccccccddddddddddccccccccccccccccccbbbbaaaaaa-----aa----aaaaaaaa-a--aaaa-a----aaaaaaaaa------aaa---aaaaaaaaaaaaaaaaaababbbbbbabbbbbbbbbbbbbbcdbbbbbbcc
(PID.TID 0000.0001) //     27 ................................+++++++++++++++++++zzzyyyyxxxxxxxxxxxxxxxxxxxwwwwwxxxwwwwwwwwwvvvvvvvvvvvvvvvvvuuuuuuuuuuvvuuuuuuvvvvvvvuuuuvvuustqnhdccccccdddddcccdddddcccccdddcccccdcccccddddddddddddddddddddddddddedeeeeeefffffeeeeeeeeeeeeeedddddeeeddddddddccccccccdddddddddccccccccccccbcccccccbbbbbaaaaa----aaaaa-----aaaaaaaaa-aaaaaaa---aaaaaaaa----------a--aaaaabaaaaaaabaaaababbbbbbbbbbbbbbbbbbbbbbcbbbbbccc
(PID.TID 0000.0001) //     26 .................................++++++++++++++++++zzzyyyyxxxxxxxxxxxxxxxxxxxxwwwwxxxxwwwwwwwwwvvvvvvvvvvvvvvvvuuuuuuuuuuvvuuuuuuvvvvvvvuuuuuvuututpjdcccccccdddddddcdddddddcdddddccdddccdddddcccdddddddddddddddddddddedeeeeefffffeeeeeeeeeeeeeeddddddeedddddddccccccccddddddddddddcccccccccccbcccccccbbbbbaaaaa---aaaaaaa-----aaaaaaaa-aaaaaaa----aaaaaaa--aaa--------aaaaaaaabbaaaaaabbaaabbbbbbbbbbbbbbbbbbabbcbbbbcccc
(PID.TID 0000.0001) //     25 .................................++++++++++++++++++zzzyyyyxxxxxxxxxxyyyxxxxxxxxwwwxxxxxwwwwwwwwvvvvvvvvvvvvvvvuuuuuttuuuuvvttuuuuvvvvvvvuuuuuuuuuutrkdcbcccccdddddddcddddddddddddddddddcdddddddccddddddddddddddddddddddddeeeefffffeeeeeeeeeeeddedddddddedddddddccccccccdddddddddddccccccccccccbcccccccbbbbaaaaaa---aaaaaaa-------aaa-aa--aaa-aa------a--aa--aaa--------aaaaaaaaaaaaaaaaaaaaabbbbbbbbbbbbabbbbbbbbbbbbbcccc
(PID.TID 0000.0001) //     24 .................................++++++++++++++++++zzzyyyyxxxxxxxxxyyyyyyyxxxxxxwwxxxxxxwwwwwwwwvvvvvvvvvvvvuuuuuuuttuuuuvvttuuuuvvvvvvvuuuuuuuutttrlecbbccccdddddddcddddddddddddddddddcdddddddddddddddddddddddddddddddddeeeffffffeeeeeeeeeeedeeddddddeeddddddcccccccdcddddcdddddcccccccccccccbcccccccbbbbbaaaaaa-aaaaaaaaa------aa---aa-aa---aa-----a-aa-------------aaaaaaaaaaaaaaaaaaaaabbbbbbbbbbbbbbbbbbabbbbbbbbcccc
(PID.TID 0000.0001) //     23 ..................................+++++++.+++++++++zzzyyyyxxxxxxxxxyyyyyyyyyxxxxxwyyxxxxxwwwwwwwvvvvvvvvvvvuuuuuuuutttuuuvvtttuuuvvvvvuuuuuuuuuutttpjecbccccccddddddccddddddddddddddddddddddddddddddddddddddddddddddddddeeeeffffffeeeeeeeeedeeeddddddceddddddccccccccdcddddccddcccccccccccccccbcccccccbbbbaaaaaaaaaaaaaaaaa-------a----a--a----a-aaa-aaaa---------aaaaaaaaaaaaabbaaaaaabbbbabbbbbaabbbbbbbbbcbbbbbbbbbcccc
(PID.TID 0000.0001) //     22 ..................................+++++++.+++++++++zzzyyyyxxxxxxxxxyyyyyyyyyyyxxxxyyyyxxxxxwwwwwwvvvvvvvvvuuuuuuuuutttuuuvvtttuuuvvvvuuuuuvuuuuttsrlhdccccccccddddddccddddddddddddddddddddddddddddddddddddeeedddddeeedddeeeeffffffeeeeeeeedeeeedddddddedddddddcccccccccccccdccccccccccccccccccbcccccccbbbbaaaaaaaaaaaaaaaaaa-----aaa-----aaa----aaaa-aaaa---------a--aaaaabaabbbaabaabbbaababbbaaaaabbbbaaabbbbbbbbbbbbccc
(PID.TID 0000.0001) //     21 ..................................+++++++.+++++++++zzzyyyyxxxxxxxxxyyyyyyyyyyyyyxxyyyyyyxxxxwwwwwvvvvvvvvvuuuuuuuuuttttuuuvttttuuuvvvvuuuuuuuuutsqmheddcccccccddddddccddddddddddddddddddddddddddddddddddddeeedddddeeeddeeeefffffffeeeeeeeedeeeddddcccdddddcccddcccccccccccccccccccccccccccccccbcccccccbbbbaaaaaaaaaaaaaaaaaa-----aaaaa---aaaaa---aaa--aaa------------aaaaaabbbbbaaabbbbbabaabbbbaaaabbbbaabcbbabbbbbbbbccc
(PID.TID 0000.0001) //     20 ...................................++++++..++++++++zzzyyyyxxxxxxxxxyyyyzyyyyyyyyyyyyyyyyyyxxxwwwwwvvvvvvvvuuuuuuuuuttttuuuvttttuuuvvvvvuuuuuuuttrqlfeedddcccccddddddccddddddddddddddddddddddddcdddddddddddeeddddddeedddeeeeffgffffeeeeeedeeeeeddddcccdddddcccdcccccccccccccccccccccccccccccccbbccccccbbbbbaaaaaaaaaaaaaaaaaa----aaaaaa--aaaaaa--------aa--aa--------aaaaaaaabaaaaaaabaaaaaaabbbbaaabbbbaaadcbbbbbbbbcbcccc
(PID.TID 0000.0001) //     19 ..................................+++++++.+++++++++zzzyyyyxwwxxxxxxyyyzzzyyyyyyyyyyyyyyyyyyyxxxwwwwvvvvvvvuuvuuuuuttttttuuutttttuuuuvvvuuuuuuuutttqkgeeedcccdcdddddddcddddddddddddddddddddddddcdddddddddddddddddddddddeeeeeffgffffeeeeeeeeeeedddcccdccddcccdccccccccccccccccccccccccccccccccbbbcccccbbbbbbaaaaaaaaaaaaaaaaaa---aaaaaaa--aaaaaa--aa-----a-aaaa--aaaa--aaaaaaaaaaaaaaaaaaaabaabbbbaaabbbbaaabaabbbbbbbcccccc
(PID.TID 0000.0001) //     18 ..................................+++++++.+++++++++zzzyyyyxxwxxxxxxyyyzzzzzzzzzyyyzzzzzyyyyyyxxxxwwwvvvvvvvvvvuuttttttttuuutttttuuuvvvvvuutttuuttusphfeddccdcccdddddcccddddddddddddddddddddddddddddddddddddddddddddddeeeeeeffffffeeeeeeeeeeeddddccccccddcccccccccccccccccccccccccccccccccccbbbbccccbbbbbbbbaaaaaaaaaaaaaaaa----aaaaaaa-aaaaaaa-aaa--------aaaaaaaa---aaaaaaaaaaaaaaaaaaaabbbaabaaabbabbbbaaaabbbbbbbbccccc
(PID.TID 0000.0001) //     17 ...................................++++++..++++++++zzzyyyyxwwxxxxxxyyzzzzzzzzzzzzzzzzzzzzzyyyyyxxxxwwvvvvvvvvvvuuuuuttttuuuuttttuuuuuvvvvuuuuuuttutqjgeddccccccdddddcccdddddddddddddddddddddddddedddddddddeeddddddeedeeeeefffffffeeeeeeeeeeedddddcdcccdddcdcccccccccccccccccccccccccccccbccbbbbcbccbbbbbbbbbaaaaaaaaaaaaaaa---aaaaaaaa--aaaaaa----------a-a----aa---aaaaaababbbbbababbbbbbbaaaaaaabaaabbbaaabbbbbbbbbccccc
(PID.TID 0000.0001) //     16 ...................................++++++..++++++++zzzyyyxxwwwxxxxxyyz+++++++++++z+++++++zzzzyyyyxxxwwwvvvvvvvvvuuuuuttuuuuuuttuuuuuvuvvvuuuuuuttttqmifddcccccccddddccccdddddddddddddddddddddddeeeddddddddeeedddddeeeeeeefffffffeeeeeeeeeeeeddddddddccddddddccccccccccccccccccccccccccccbbbbbbbcbbbbbbbbbbbaaaaaaaaaaaaaaaa--aaaaaaaa---aaaaa---aa--a--------------aaaaaaabbabbbbabbabbbbbaaabaaaaaaaaabccaabbbbbbbbbbbccc
(PID.TID 0000.0001) //     15 ....................................+++++...+++++++zzzyyyxxxxxxxxxxyyz++++++++++++++++++++++zzzyyyyxxwwwwvwvvvvvvvuuuuuuuuuuuuuuuuuuuuuuuuuuuuuttttspkgedcccccccddddccccdddddddddddddddddddddddeeeeeddededeeedededeeeeeeeffffffeeeeeeeedeeeeddddddddccddddddccccccccccccccccccccccccccccbbbbbbbcbbbbbbbbbbbaaaaaaaaaaaaaaaa--aaaaaaa----aaaa------a------aa-------aaaaaaabaaaaaabbaaaaaabbbaaaaaaaaaaabbbcbbbbbbbbcbbbbbcc
(PID.TID 0000.0001) //     14 ....................................+++++...+++++++zzzyyyxxxwxxxxxxyyz+++++++++++++++++++++++++zzzyyxxxxwwwwvvvvvvvuuuuuuuuuuuuuuuuuuuuuuuuuuuttstssrlgedddcccccddddccccddddddddddddddddddddddeeeeeeeeeeeeeeeeeeeeeeeeeefffffffeeeeeeddddededdddddddccddddddccccccccccccccccccccccccccccbbbbbbbcbbbbbbbbbbbaaaaaaaaaaaaaaa----aaaaa-----aaa-------aa------aa------aaaaaaaabaaaaababaaaaabbbaaaaaaaaaaabbbbbbbbbbbbcbbbbbbc
(PID.TID 0000.0001) //     13 .....................................++++....++++++zzzyyyxxwwwxxxxxyyz+++++++++++++++++++++++++++zzzyyxxxxwwwwvvvvvuuuuuuuuuuuuuuuuuuuuuuuuutttssssspieddddccccccdddcccccdddddddddddddddddddddeeeeeeddeeeeeeedeeeeeeeeefffffffffeeeedddddeedddddddddccddddddcccccccccccccccccccccccccccbbbbbbbbbbbbbbbbbbbbaaaaaaaaaaaaaaa----aaa-------a----------a------------a--aaaaaaaaaaaabbaaaaaabbbaaaaaaaaaabaabbbbbbbbbbbcbbbbbbb
(PID.TID 0000.0001) //     12 .....................................++++....++++++zzzyyyyxwwwxxxxxyyz++++++++++++++++++++++++++..+zzzyyxxxxwwvvvvvvuuutttuvuuutttuuuuuuuuttsttssssqmfeedddcccccccddccccccdddddddddddddddedddeeeeeeeddeeeeeeedeeeeeeeeefgfffffffeeeeddddddedddddddddccddddddcccccccccccccccccccccccccccbbcbbbbbbbcbbbbbbbbbaaaaaaaaaaaaaaaa---aa-------------------a------------aaaaa-aaaaaaaabbbaaaaabbbaaaaaaaaabbaaaaabbbbbbbbbbbbbbbbb
(PID.TID 0000.0001) //     11 ......................................+++.....+++++zzzyyyyxxxwxxxxxyyz++++++++++++++++++++++++++...++zzyyyyxxwwvvvvvuuuttttvuuuttttuuuutttttsssrssrngeeeddccccccccddccccccdddddddddedddddedddeeeeeeedeeeeeeeeeeeeeeeeeffgfffffffeeeddddddeedddddddddccddddddcccccccccccccccccccccccccbbbbcbbbbbbbcbbbbbbbbaaaaaaaaaaaaaaaaaa--aa----------------------------aaa---aa--aaaaaaaaabbaaaaaabbbaaaaaaaabbabaaabbbbbbbbbbbbbccbb
(PID.TID 0000.0001) //     10 ......................................+++.....+++++zzzyyyyxwwwwxxxxxyzz+++++++++++++++++++++++++....+++zzyyyyxwwwvvvvuutsssvvuutssstttttsrssssrrssqifeeedccccccdddddcccddddddddddddeeddddddddeeeeeeeeeeeeeeeeeeeeeeeeeffgfffffffeeeeddddeeeeddddddddccddddddcccccccccccccccccccccccccbbbbbbbbbbbbbbbbbbbbbaaaaaaaaaaaaaaaaaaaaaaa-------a------------------a------aa--aaaaaaaaabbaaaaaabbaaaaaaaaabaabaabbbbbbbbbbbbbbcbbb
(PID.TID 0000.0001) //      9 .......................................++......++++zzzyyyyxxwwwxxxxxyzz++++++++++++++++++++++++++.....+++zzzyyyxwwwvvvuusrrvvvuusrrrsssrqqrrrrsssrjffeddccccccddddddccdddddddddddddeeeeddddddeeeeeeeeeeeeeeeeeeeeeeeeefgggffffffeeeeeeeeeeeedddddddddcdddddddccccccccccbcccccccccccccbbbbbbbbbbbbbbbbbbbbaaaaaaaaaaaaaaaaaaaaaaa----------------------aaaa-------aa-aaaaaabaaaaababaaaaabbaaaaaaaaaaabbbbbbbbbbbbbbbbbcbbb
(PID.TID 0000.0001) //      8 .......................................++......++++zzzyyyyxxwwwxxxxxyzz+++++++++++++++++++++++++........+++zzzzyyxxwvvvutsrwvvvutsrrrrrrqrrqpqrqpnigfeddccccdddddddddddddddddddddddeeeeddeeeeeeeeeddeeeeeeeeeeeeeeeeeefgggffffeeeeeeeeeeeeedddddddddccddddddccccccccccbbcccccccccccccbbbbbbbbbbbbbbbbbbbaaaaaaaaaaaaaaaaaaaaaaaaa-------a-------aaaaaa-a---------a--aaaaaabaaabbbabaaabbbbaaaaaaaaaaabbbbbbbbbbbbbbbbbbbbb
(PID.TID 0000.0001) //      7 .......................................++......++++zzzyyyyxxwwwxxxxxyzz+++++++++++++++++++++++++..........++++zzzyyxwvvuuttxwvvuuttssrrssssqponoprhgfeddcccddddddddddddddddddddddddeeeeeeeeeeeeeeeddeeeeeeeeeeeeeeeeeffgggffffffeeeeeeeeeeeedddddddddcdddddddcccccccccbbcccccccccccccbbbbbbbbbbbbbbbbbbbaaaaaaaaaaaaaaaaaaaaaaaaaa--aaaaaa--aaaaa---------------aa---aaaaabbaabbbabbaabbbaaaaaaaaaaaaabbbbbbbbbbbbbbbbbbbb
(PID.TID 0000.0001) //      6 ........................................+.......+++zzzyyyyxxwwwxxxxxyzz++++++++++++++++++++++++...............+++zzyxxwvtuuyxxwvtuuuutstuttrpmjjkkgfedccccddedddddddedddddddddddddddeeeeeeeeeeeeeedddeeeeeeffeeeeeefffffffffffffeeeeeeeeeeeedddddddddcdddddddccccccccbbccccccccccccccbbbbbbbbbbbbbbbbbbbbaaaaaaaaaaaaaaaaaaaaaaaaaaa----aaaa---------a----------a-a--aaaaabaaaaaaabaaaaaaaaaaaaaaaaaaabbbbbbbbbbbccbbbaaab
(PID.TID 0000.0001) //      5 ........................................+.......+++zzzyyyxxxwwwxxxxxxyzzz+++++++++++++++++++++...................++zzyxwuuvzzyxwuuvuuttuuvvurojhgfeddcccccdddddddddddddddddddddddddddeeeeeeeeeeeeeeeeeeeeefffeeeeefffffffffffffffeeeeeeeeeeeddddddddccddddddcccccccccbbcccbbbbccccbbbbbbbbbbbbbbbbbbbbbbbbbaaaaaaaaaaaaaaaaaaaaaaaaa----aaaa------------aa------a-a-aaaaabaaaaaaabaaaaaaaaaaa-aaabaaaabbbbbbbbbbbcbbbaaaab
(PID.TID 0000.0001) //      4 ........................................+.......+++zzzyyyxxxwwwxxxxxxyzzzz++++++++++++++++++........................+zyxwvv.+zyxwvvuuuuuvvvutsonlhgeccccccdddddddddddddddddddddddddddeeeeeeeeeeeeeeeeeeeeefffeeeeeffffffffffffffffeeeeeeeeeddddddddddcdddddddccccccccbccccbbbbbcccbbbbbbbbbbbbbbbbbbbbbbbbaaaaaaaaaaaaaaaaaaaaa--aaa-----aaa-------------aa----a---aaaaaaaaaaaaaaaaaaaaaaaaaaaaabbaaaabbbbaabbbbbbbbbaaaaa
(PID.TID 0000.0001) //      3 ........................................+.......+++zzzyyyxxxwwwxxxxxxyyzzz+++++++++++++++++..........................+zyxwu..+zyxwuuuuuuvvvvuusstpnhddccccddddddddddddddddddddddeedddeeeeeeeeeeeeeeeeeeedefffeeedeffffefffffffffffeeeeeeeeeddddddddddcdddddddcccccccccccccbbbbbbccbbbbbbbbbbbbbbbbbbbbbbbbaaaaaaaaaaaaaaaaaaaa---aa------aa---------------aa-------aaaaaaaaaaaaaaaaaaaaaaaaaaaaabbaaaabbbbaaabbbbbbbaaaaaa
(PID.TID 0000.0001) //      2 ........................................+.......+++zzzyyyxxxxwwxxxxxxyyzzz++++++++++++++++............................+zyxw...+zyxwvvvvvvvvvuuttttrkeddccddddddddddddddddddddeeeeeddeeeeeeeeeeeeeeeeeeeeeeeffeeeeeeffeffffffffffffeeeeeeeeeddddddddddcdddddddccccccccccccbbbbcbbbbcbbbbbbbbbbbbbbbbbbbbbaaaaaaaaaaaaaaaa----a----a-------a-----------------a------aaaaaaaaaaaaaaaaaaaaaaaaaaaaabbaaaaabbbbbbbbbbbbbaaaaaaa
(PID.TID 0000.0001) //      1 ..........................................................................................................................................................................................................................................................................................................................................................................................................................
(PID.TID 0000.0001) //      0 ..........................................................................................................................................................................................................................................................................................................................................................................................................................
(PID.TID 0000.0001) //     -1 .................................................................................................................................................................................................................................................................................................................................................+++++++zzzzzzzzzzzzzzzzzzzzzzzzzzzzzzzzzzzz++zzz+zzzzzzzzzzzzzzzzzzzzzzzz
(PID.TID 0000.0001) //     -2 ................................................................................................................................................................................................................................................................................................................................................+++++++zzzzzzzzzzzzzzzzzzzzzzzzzzzzzzzzzzzzzzz+++zzzzzzzzzzzzzzzzzzzzzzzzz
(PID.TID 0000.0001) //     -3 ................................................................................................................................................................................................................................................................................................................................................+++++++zzzzzzzzzzzzzzzzzzzzzzzzzzzzzzzzzzzzzzz+++zzzzzzzzzzzzzzzzzzzzzzzzz
(PID.TID 0000.0001) // =======================================================
(PID.TID 0000.0001) // END OF FIELD                                          =
(PID.TID 0000.0001) // =======================================================
(PID.TID 0000.0001) 
(PID.TID 0000.0001) // =======================================================
(PID.TID 0000.0001) // Field Model Ro_surf (ini_masks_etc)
(PID.TID 0000.0001) // CMIN =          1.000000000000000E+32
(PID.TID 0000.0001) // CMAX =         -1.000000000000000E+32
(PID.TID 0000.0001) // CINT =          0.000000000000000E+00
(PID.TID 0000.0001) // SYMBOLS (CMIN->CMAX): -abcdefghijklmnopqrstuvwxyz+
(PID.TID 0000.0001) //                  0.0: .
(PID.TID 0000.0001) // RANGE I (Lo:Hi:Step):(    -3:   334:     1)
(PID.TID 0000.0001) // RANGE J (Lo:Hi:Step):(    32:    -3:    -1)
(PID.TID 0000.0001) // RANGE K (Lo:Hi:Step):(   1:   1:   1)
(PID.TID 0000.0001) // =======================================================
(PID.TID 0000.0001) // =======================================================
(PID.TID 0000.0001) // END OF FIELD                                          =
(PID.TID 0000.0001) // =======================================================
(PID.TID 0000.0001) 
(PID.TID 0000.0001) // =======================================================
(PID.TID 0000.0001) // Field hFacC at iteration          0
(PID.TID 0000.0001) // CMIN =          1.000000000000000E+00
(PID.TID 0000.0001) // CMAX =          1.000000000000000E+00
(PID.TID 0000.0001) // CINT =          0.000000000000000E+00
(PID.TID 0000.0001) // SYMBOLS (CMIN->CMAX): -abcdefghijklmnopqrstuvwxyz+
(PID.TID 0000.0001) //                  0.0: .
(PID.TID 0000.0001) // RANGE I (Lo:Hi:Step):(    -3:   334:     1)
(PID.TID 0000.0001) // RANGE J (Lo:Hi:Step):(    32:    -3:    -1)
(PID.TID 0000.0001) // RANGE K (Lo:Hi:Step):(   1:   1:   1)
(PID.TID 0000.0001) // =======================================================
(PID.TID 0000.0001) // =======================================================
(PID.TID 0000.0001) // END OF FIELD                                          =
(PID.TID 0000.0001) // =======================================================
(PID.TID 0000.0001) 
(PID.TID 0000.0001) // =======================================================
(PID.TID 0000.0001) // Field hFacW at iteration          0
(PID.TID 0000.0001) // CMIN =          1.000000000000000E+00
(PID.TID 0000.0001) // CMAX =          1.000000000000000E+00
(PID.TID 0000.0001) // CINT =          0.000000000000000E+00
(PID.TID 0000.0001) // SYMBOLS (CMIN->CMAX): -abcdefghijklmnopqrstuvwxyz+
(PID.TID 0000.0001) //                  0.0: .
(PID.TID 0000.0001) // RANGE I (Lo:Hi:Step):(    -3:   334:     1)
(PID.TID 0000.0001) // RANGE J (Lo:Hi:Step):(    32:    -3:    -1)
(PID.TID 0000.0001) // RANGE K (Lo:Hi:Step):(   1:   1:   1)
(PID.TID 0000.0001) // =======================================================
(PID.TID 0000.0001) // =======================================================
(PID.TID 0000.0001) // END OF FIELD                                          =
(PID.TID 0000.0001) // =======================================================
(PID.TID 0000.0001) 
(PID.TID 0000.0001) // =======================================================
(PID.TID 0000.0001) // Field hFacS at iteration          0
(PID.TID 0000.0001) // CMIN =          1.000000000000000E+00
(PID.TID 0000.0001) // CMAX =          1.000000000000000E+00
(PID.TID 0000.0001) // CINT =          0.000000000000000E+00
(PID.TID 0000.0001) // SYMBOLS (CMIN->CMAX): -abcdefghijklmnopqrstuvwxyz+
(PID.TID 0000.0001) //                  0.0: .
(PID.TID 0000.0001) // RANGE I (Lo:Hi:Step):(    -3:   334:     1)
(PID.TID 0000.0001) // RANGE J (Lo:Hi:Step):(    32:    -3:    -1)
(PID.TID 0000.0001) // RANGE K (Lo:Hi:Step):(   1:   1:   1)
(PID.TID 0000.0001) // =======================================================
(PID.TID 0000.0001) // =======================================================
(PID.TID 0000.0001) // END OF FIELD                                          =
(PID.TID 0000.0001) // =======================================================
(PID.TID 0000.0001) 
(PID.TID 0000.0001) 
(PID.TID 0000.0001) // =======================================================
(PID.TID 0000.0001) // Calendar configuration >>> START <<<
(PID.TID 0000.0001) // =======================================================
(PID.TID 0000.0001) 
(PID.TID 0000.0001) modelstart = /* Start time of the model integration [s] */
(PID.TID 0000.0001)                 0.000000000000000E+00
(PID.TID 0000.0001)     ;
(PID.TID 0000.0001) modelend  = /* End time of the model integration [s] */
(PID.TID 0000.0001)                 3.600000000000000E+03
(PID.TID 0000.0001)     ;
(PID.TID 0000.0001) modelStep = /* Time interval for a model forward step [s] */
(PID.TID 0000.0001)                 2.400000000000000E+02
(PID.TID 0000.0001)     ;
(PID.TID 0000.0001) usingGregorianCalendar= /* Calendar Type: Gregorian Calendar */
(PID.TID 0000.0001)                   T
(PID.TID 0000.0001)     ;
(PID.TID 0000.0001) usingJulianCalendar = /* Calendar Type: Julian Calendar */
(PID.TID 0000.0001)                   F
(PID.TID 0000.0001)     ;
(PID.TID 0000.0001) usingNoLeapYearCal  = /* Calendar Type: without Leap Year */
(PID.TID 0000.0001)                   F
(PID.TID 0000.0001)     ;
(PID.TID 0000.0001) usingModelCalendar  = /* Calendar Type: Model Calendar */
(PID.TID 0000.0001)                   F
(PID.TID 0000.0001)     ;
(PID.TID 0000.0001) modelStartDate YYYYMMDD = /* Model start date YYYY-MM-DD */
(PID.TID 0000.0001)                20080101
(PID.TID 0000.0001)     ;
(PID.TID 0000.0001)   modelStartDate HHMMSS = /* Model start date HH-MM-SS  */
(PID.TID 0000.0001)                       0
(PID.TID 0000.0001)     ;
(PID.TID 0000.0001) modelEndDate   YYYYMMDD = /* Model end date YYYY-MM-DD */
(PID.TID 0000.0001)                20080101
(PID.TID 0000.0001)     ;
(PID.TID 0000.0001)   modelEndDate   HHMMSS = /* Model end date HH-MM-SS  */
(PID.TID 0000.0001)                   10000
(PID.TID 0000.0001)     ;
(PID.TID 0000.0001) intyears = /* Number of calendar years affected by the integration */
(PID.TID 0000.0001)                       1
(PID.TID 0000.0001)     ;
(PID.TID 0000.0001) intmonths= /* Number of calendar months affected by the integration */
(PID.TID 0000.0001)                       1
(PID.TID 0000.0001)     ;
(PID.TID 0000.0001) intdays = /* Number of calendar days affected by the integration */
(PID.TID 0000.0001)                       1
(PID.TID 0000.0001)     ;
(PID.TID 0000.0001) modelIter0 = /* Base timestep number  */
(PID.TID 0000.0001)                       0
(PID.TID 0000.0001)     ;
(PID.TID 0000.0001) modelIterEnd = /* Final timestep number  */
(PID.TID 0000.0001)                      15
(PID.TID 0000.0001)     ;
(PID.TID 0000.0001) modelIntSteps= /* Number of model timesteps  */
(PID.TID 0000.0001)                      15
(PID.TID 0000.0001)     ;
(PID.TID 0000.0001) 
(PID.TID 0000.0001) // =======================================================
(PID.TID 0000.0001) // Calendar configuration  >>> END <<<
(PID.TID 0000.0001) // =======================================================
(PID.TID 0000.0001) 
(PID.TID 0000.0001) GAD_INIT_FIXED: GAD_OlMinSize=  4  0  1
(PID.TID 0000.0001) 
(PID.TID 0000.0001) // ===================================
(PID.TID 0000.0001) // GAD parameters :
(PID.TID 0000.0001) // ===================================
(PID.TID 0000.0001) tempAdvScheme =   /* Temp. Horiz.Advection scheme selector */
(PID.TID 0000.0001)                       7
(PID.TID 0000.0001)     ;
(PID.TID 0000.0001) tempVertAdvScheme =   /* Temp. Vert. Advection scheme selector */
(PID.TID 0000.0001)                       7
(PID.TID 0000.0001)     ;
(PID.TID 0000.0001) tempMultiDimAdvec =   /* use Muti-Dim Advec method for Temp */
(PID.TID 0000.0001)                   T
(PID.TID 0000.0001)     ;
(PID.TID 0000.0001) tempSOM_Advection = /* use 2nd Order Moment Advection for Temp */
(PID.TID 0000.0001)                   F
(PID.TID 0000.0001)     ;
(PID.TID 0000.0001) AdamsBashforthGt = /* apply Adams-Bashforth extrapolation on Gt */
(PID.TID 0000.0001)                   F
(PID.TID 0000.0001)     ;
(PID.TID 0000.0001) AdamsBashforth_T = /* apply Adams-Bashforth extrapolation on Temp */
(PID.TID 0000.0001)                   F
(PID.TID 0000.0001)     ;
(PID.TID 0000.0001) saltAdvScheme =   /* Salt. Horiz.advection scheme selector */
(PID.TID 0000.0001)                       7
(PID.TID 0000.0001)     ;
(PID.TID 0000.0001) saltVertAdvScheme =   /* Salt. Vert. Advection scheme selector */
(PID.TID 0000.0001)                       7
(PID.TID 0000.0001)     ;
(PID.TID 0000.0001) saltMultiDimAdvec =   /* use Muti-Dim Advec method for Salt */
(PID.TID 0000.0001)                   T
(PID.TID 0000.0001)     ;
(PID.TID 0000.0001) saltSOM_Advection = /* use 2nd Order Moment Advection for Salt */
(PID.TID 0000.0001)                   F
(PID.TID 0000.0001)     ;
(PID.TID 0000.0001) AdamsBashforthGs = /* apply Adams-Bashforth extrapolation on Gs */
(PID.TID 0000.0001)                   F
(PID.TID 0000.0001)     ;
(PID.TID 0000.0001) AdamsBashforth_S = /* apply Adams-Bashforth extrapolation on Salt */
(PID.TID 0000.0001)                   F
(PID.TID 0000.0001)     ;
(PID.TID 0000.0001) // ===================================
(PID.TID 0000.0001) OBCS_INIT_FIXED: Setting OB indices in Overlap
(PID.TID 0000.0001)  Sets OBS(i,bi,bj=   37,  1,  1)=    2
(PID.TID 0000.0001)  Sets OBS(i,bi,bj=   34,  2,  1)=    2
(PID.TID 0000.0001)  Sets OBS(i,bi,bj=   35,  2,  1)=    2
(PID.TID 0000.0001)  Sets OBS(i,bi,bj=   36,  2,  1)=    2
(PID.TID 0000.0001)  Sets OBS(i,bi,bj=   37,  2,  1)=    2
(PID.TID 0000.0001)  Sets OBS(i,bi,bj=   -3,  3,  1)=    2
(PID.TID 0000.0001)  Sets OBS(i,bi,bj=   -2,  3,  1)=    2
(PID.TID 0000.0001)  Sets OBS(i,bi,bj=   -1,  3,  1)=    2
(PID.TID 0000.0001)  Sets OBS(i,bi,bj=    0,  3,  1)=    2
(PID.TID 0000.0001)  Sets OBS(i,bi,bj=   34,  3,  1)=    2
(PID.TID 0000.0001)  Sets OBS(i,bi,bj=   35,  3,  1)=    2
(PID.TID 0000.0001)  Sets OBS(i,bi,bj=   36,  3,  1)=    2
(PID.TID 0000.0001)  Sets OBS(i,bi,bj=   37,  3,  1)=    2
(PID.TID 0000.0001)  Sets OBS(i,bi,bj=    0,  4,  1)=    2
(PID.TID 0000.0001)  Sets OBS(i,bi,bj=   34,  4,  1)=    2
(PID.TID 0000.0001)  Sets OBS(i,bi,bj=   35,  4,  1)=    2
(PID.TID 0000.0001)  Sets OBS(i,bi,bj=   36,  4,  1)=    2
(PID.TID 0000.0001)  Sets OBS(i,bi,bj=   37,  4,  1)=    2
(PID.TID 0000.0001)  Sets OBS(i,bi,bj=   -3,  5,  1)=    2
(PID.TID 0000.0001)  Sets OBS(i,bi,bj=   -2,  5,  1)=    2
(PID.TID 0000.0001)  Sets OBS(i,bi,bj=   -1,  5,  1)=    2
(PID.TID 0000.0001)  Sets OBS(i,bi,bj=    0,  5,  1)=    2
(PID.TID 0000.0001)  Sets OBS(i,bi,bj=   34,  5,  1)=    2
(PID.TID 0000.0001)  Sets OBS(i,bi,bj=   35,  5,  1)=    2
(PID.TID 0000.0001)  Sets OBS(i,bi,bj=   36,  5,  1)=    2
(PID.TID 0000.0001)  Sets OBS(i,bi,bj=   37,  5,  1)=    2
(PID.TID 0000.0001)  Sets OBS(i,bi,bj=   -3,  6,  1)=    2
(PID.TID 0000.0001)  Sets OBS(i,bi,bj=   -2,  6,  1)=    2
(PID.TID 0000.0001)  Sets OBS(i,bi,bj=   -1,  6,  1)=    2
(PID.TID 0000.0001)  Sets OBS(i,bi,bj=    0,  6,  1)=    2
(PID.TID 0000.0001)  Sets OBS(i,bi,bj=   34,  6,  1)=    2
(PID.TID 0000.0001)  Sets OBS(i,bi,bj=   35,  6,  1)=    2
(PID.TID 0000.0001)  Sets OBS(i,bi,bj=   36,  6,  1)=    2
(PID.TID 0000.0001)  Sets OBS(i,bi,bj=   37,  6,  1)=    2
(PID.TID 0000.0001)  Sets OBS(i,bi,bj=   -3,  7,  1)=    2
(PID.TID 0000.0001)  Sets OBS(i,bi,bj=   -2,  7,  1)=    2
(PID.TID 0000.0001)  Sets OBS(i,bi,bj=   -1,  7,  1)=    2
(PID.TID 0000.0001)  Sets OBS(i,bi,bj=    0,  7,  1)=    2
(PID.TID 0000.0001)  Sets OBS(i,bi,bj=   34,  7,  1)=    2
(PID.TID 0000.0001)  Sets OBS(i,bi,bj=   35,  7,  1)=    2
(PID.TID 0000.0001)  Sets OBS(i,bi,bj=   36,  7,  1)=    2
(PID.TID 0000.0001)  Sets OBS(i,bi,bj=   37,  7,  1)=    2
(PID.TID 0000.0001)  Sets OBS(i,bi,bj=   -3,  8,  1)=    2
(PID.TID 0000.0001)  Sets OBS(i,bi,bj=   -2,  8,  1)=    2
(PID.TID 0000.0001)  Sets OBS(i,bi,bj=   -1,  8,  1)=    2
(PID.TID 0000.0001)  Sets OBS(i,bi,bj=    0,  8,  1)=    2
(PID.TID 0000.0001)  Sets OBS(i,bi,bj=   34,  8,  1)=    2
(PID.TID 0000.0001)  Sets OBS(i,bi,bj=   35,  8,  1)=    2
(PID.TID 0000.0001)  Sets OBS(i,bi,bj=   36,  8,  1)=    2
(PID.TID 0000.0001)  Sets OBS(i,bi,bj=   37,  8,  1)=    2
(PID.TID 0000.0001)  Sets OBS(i,bi,bj=   -3,  9,  1)=    2
(PID.TID 0000.0001)  Sets OBS(i,bi,bj=   -2,  9,  1)=    2
(PID.TID 0000.0001)  Sets OBS(i,bi,bj=   -1,  9,  1)=    2
(PID.TID 0000.0001)  Sets OBS(i,bi,bj=    0,  9,  1)=    2
(PID.TID 0000.0001)  Sets OBS(i,bi,bj=   34,  9,  1)=    2
(PID.TID 0000.0001)  Sets OBS(i,bi,bj=   35,  9,  1)=    2
(PID.TID 0000.0001)  Sets OBS(i,bi,bj=   36,  9,  1)=    2
(PID.TID 0000.0001)  Sets OBS(i,bi,bj=   37,  9,  1)=    2
(PID.TID 0000.0001)  Sets OBS(i,bi,bj=   -3, 10,  1)=    2
(PID.TID 0000.0001)  Sets OBS(i,bi,bj=   -2, 10,  1)=    2
(PID.TID 0000.0001)  Sets OBS(i,bi,bj=   -1, 10,  1)=    2
(PID.TID 0000.0001)  Sets OBS(i,bi,bj=    0, 10,  1)=    2
(PID.TID 0000.0001)  Sets OBS(i,bi,bj=   34, 10,  1)=    2
(PID.TID 0000.0001)  Sets OBS(i,bi,bj=   35, 10,  1)=    2
(PID.TID 0000.0001)  Sets OBS(i,bi,bj=   36, 10,  1)=    2
(PID.TID 0000.0001)  Sets OBS(i,bi,bj=   37, 10,  1)=    2
(PID.TID 0000.0001) OBCS_INIT_FIXED: Setting OB indices in Overlap <= done
(PID.TID 0000.0001) 
(PID.TID 0000.0001) // =======================================================
(PID.TID 0000.0001) // External forcing (EXF) configuration >>> START <<<
(PID.TID 0000.0001) // =======================================================
(PID.TID 0000.0001) 
(PID.TID 0000.0001)  EXF general parameters:
(PID.TID 0000.0001) 
(PID.TID 0000.0001) exf_iprec = /* exf file precision */
(PID.TID 0000.0001)                      32
(PID.TID 0000.0001)     ;
(PID.TID 0000.0001) useExfYearlyFields = /* add extension _YEAR to input file names */
(PID.TID 0000.0001)                   T
(PID.TID 0000.0001)     ;
(PID.TID 0000.0001) twoDigitYear = /* use 2-digit year extension */
(PID.TID 0000.0001)                   F
(PID.TID 0000.0001)     ;
(PID.TID 0000.0001) useExfCheckRange = /* check for fields range */
(PID.TID 0000.0001)                   F
(PID.TID 0000.0001)     ;
(PID.TID 0000.0001) exf_output_interp = /* output directly interpolation result */
(PID.TID 0000.0001)                   F
(PID.TID 0000.0001)     ;
(PID.TID 0000.0001) exf_debugLev = /* select EXF-debug printing level */
(PID.TID 0000.0001)                       2
(PID.TID 0000.0001)     ;
(PID.TID 0000.0001) exf_monFreq  = /* EXF monitor frequency [ s ] */
(PID.TID 0000.0001)                 2.400000000000000E+02
(PID.TID 0000.0001)     ;
(PID.TID 0000.0001) repeatPeriod = /* period for cycling forcing dataset [ s ] */
(PID.TID 0000.0001)                 0.000000000000000E+00
(PID.TID 0000.0001)     ;
(PID.TID 0000.0001) climTempFreeze= /* Minimum climatological temperature [deg.C] */
(PID.TID 0000.0001)                -1.900000000000000E+00
(PID.TID 0000.0001)     ;
(PID.TID 0000.0001) windStressMax = /* Maximum absolute windstress [ Pa ] */
(PID.TID 0000.0001)                 2.000000000000000E+00
(PID.TID 0000.0001)     ;
(PID.TID 0000.0001) stressIsOnCgrid = /* set u,v_stress on Arakawa C-grid */
(PID.TID 0000.0001)                   F
(PID.TID 0000.0001)     ;
(PID.TID 0000.0001) rotateStressOnAgrid = /* rotate u,v_stress on Arakawa A-grid */
(PID.TID 0000.0001)                   F
(PID.TID 0000.0001)     ;
(PID.TID 0000.0001) cen2kel = /* conversion of deg. Centigrade to Kelvin [K] */
(PID.TID 0000.0001)                 2.731500000000000E+02
(PID.TID 0000.0001)     ;
(PID.TID 0000.0001) gravity_mks= /* gravitational acceleration [m/s^2] */
(PID.TID 0000.0001)                 9.810000000000000E+00
(PID.TID 0000.0001)     ;
(PID.TID 0000.0001) atmrho =  /* mean atmospheric density [kg/m^3] */
(PID.TID 0000.0001)                 1.200000000000000E+00
(PID.TID 0000.0001)     ;
(PID.TID 0000.0001) atmcp =  /* mean atmospheric specific heat [J/kg/K] */
(PID.TID 0000.0001)                 1.005000000000000E+03
(PID.TID 0000.0001)     ;
(PID.TID 0000.0001) flamb =  /* latent heat of evaporation [J/kg] */
(PID.TID 0000.0001)                 2.500000000000000E+06
(PID.TID 0000.0001)     ;
(PID.TID 0000.0001) flami =  /* latent heat of pure-ice melting [J/kg] */
(PID.TID 0000.0001)                 3.340000000000000E+05
(PID.TID 0000.0001)     ;
(PID.TID 0000.0001) cvapor_fac = /* const. for Saturation calculation [?] */
(PID.TID 0000.0001)                 6.403800000000000E+05
(PID.TID 0000.0001)     ;
(PID.TID 0000.0001) cvapor_exp = /* const. for Saturation calculation [?] */
(PID.TID 0000.0001)                 5.107400000000000E+03
(PID.TID 0000.0001)     ;
(PID.TID 0000.0001) cvapor_fac_ice= /* const. for Saturation calculation [?] */
(PID.TID 0000.0001)                 1.163780000000000E+07
(PID.TID 0000.0001)     ;
(PID.TID 0000.0001) cvapor_exp_ice= /* const. for Saturation calculation [?] */
(PID.TID 0000.0001)                 5.897800000000000E+03
(PID.TID 0000.0001)     ;
(PID.TID 0000.0001) humid_fac = /* humidity coef. in virtual temp. [(kg/kg)^-1] */
(PID.TID 0000.0001)                 6.060000000000000E-01
(PID.TID 0000.0001)     ;
(PID.TID 0000.0001) gamma_blk = /* adiabatic lapse rate [?] */
(PID.TID 0000.0001)                 1.000000000000000E-02
(PID.TID 0000.0001)     ;
(PID.TID 0000.0001) saltsat = /* reduction of Qsat over salty water [-] */
(PID.TID 0000.0001)                 9.800000000000000E-01
(PID.TID 0000.0001)     ;
(PID.TID 0000.0001) noNegativeEvap = /* prevent negative Evaporation */
(PID.TID 0000.0001)                   F
(PID.TID 0000.0001)     ;
(PID.TID 0000.0001) sstExtrapol = /* extrapolation coeff from lev. 1 & 2 to surf [-] */
(PID.TID 0000.0001)                 0.000000000000000E+00
(PID.TID 0000.0001)     ;
(PID.TID 0000.0001) cDrag_1 = /* coef used in drag calculation [?] */
(PID.TID 0000.0001)                 2.700000000000000E-03
(PID.TID 0000.0001)     ;
(PID.TID 0000.0001) cDrag_2 = /* coef used in drag calculation [?] */
(PID.TID 0000.0001)                 1.420000000000000E-04
(PID.TID 0000.0001)     ;
(PID.TID 0000.0001) cDrag_3 = /* coef used in drag calculation [?] */
(PID.TID 0000.0001)                 7.640000000000000E-05
(PID.TID 0000.0001)     ;
(PID.TID 0000.0001) cStanton_1 = /* coef used in Stanton number calculation [?] */
(PID.TID 0000.0001)                 3.270000000000000E-02
(PID.TID 0000.0001)     ;
(PID.TID 0000.0001) cStanton_2 = /* coef used in Stanton number calculation [?] */
(PID.TID 0000.0001)                 1.800000000000000E-02
(PID.TID 0000.0001)     ;
(PID.TID 0000.0001) cDalton = /* coef used in Dalton number calculation [?] */
(PID.TID 0000.0001)                 3.460000000000000E-02
(PID.TID 0000.0001)     ;
(PID.TID 0000.0001) exf_scal_BulkCdn= /* Drag coefficient scaling factor [-] */
(PID.TID 0000.0001)                 1.000000000000000E+00
(PID.TID 0000.0001)     ;
(PID.TID 0000.0001) zolmin = /* minimum stability parameter [?] */
(PID.TID 0000.0001)                -1.000000000000000E+02
(PID.TID 0000.0001)     ;
(PID.TID 0000.0001) psim_fac = /* coef used in turbulent fluxes calculation [-] */
(PID.TID 0000.0001)                 5.000000000000000E+00
(PID.TID 0000.0001)     ;
(PID.TID 0000.0001) zref =  /* reference height [ m ] */
(PID.TID 0000.0001)                 1.000000000000000E+01
(PID.TID 0000.0001)     ;
(PID.TID 0000.0001) hu =  /* height of mean wind [ m ] */
(PID.TID 0000.0001)                 1.000000000000000E+01
(PID.TID 0000.0001)     ;
(PID.TID 0000.0001) ht =  /* height of mean temperature [ m ] */
(PID.TID 0000.0001)                 2.000000000000000E+00
(PID.TID 0000.0001)     ;
(PID.TID 0000.0001) hq =  /* height of mean spec.humidity [ m ] */
(PID.TID 0000.0001)                 2.000000000000000E+00
(PID.TID 0000.0001)     ;
(PID.TID 0000.0001) uMin = /* minimum wind speed [m/s] */
(PID.TID 0000.0001)                 5.000000000000000E-01
(PID.TID 0000.0001)     ;
(PID.TID 0000.0001) useStabilityFct_overIce= /* transfert Coeffs over sea-ice depend on stability */
(PID.TID 0000.0001)                   F
(PID.TID 0000.0001)     ;
(PID.TID 0000.0001) exf_iceCd = /* drag coefficient over sea-ice (fixed) [-] */
(PID.TID 0000.0001)                 1.630000000000000E-03
(PID.TID 0000.0001)     ;
(PID.TID 0000.0001) exf_iceCe = /* transfert coeff. over sea-ice, for Evap (fixed) [-] */
(PID.TID 0000.0001)                 1.630000000000000E-03
(PID.TID 0000.0001)     ;
(PID.TID 0000.0001) exf_iceCh = /* transfert coeff. over sea-ice, Sens.Heat.(fixed)[-] */
(PID.TID 0000.0001)                 1.630000000000000E-03
(PID.TID 0000.0001)     ;
(PID.TID 0000.0001) exf_albedo =  /* Sea-water albedo [-] */
(PID.TID 0000.0001)                 1.000000000000000E-01
(PID.TID 0000.0001)     ;
(PID.TID 0000.0001) useExfZenAlbedo = /* Sea-water albedo varies with zenith angle */
(PID.TID 0000.0001)                   T
(PID.TID 0000.0001)     ;
(PID.TID 0000.0001) select_ZenAlbedo = /* Sea-water albedo computation method */
(PID.TID 0000.0001)                       1
(PID.TID 0000.0001)     ;
(PID.TID 0000.0001) useExfZenIncoming = /* compute incoming solar radiation */
(PID.TID 0000.0001)                   T
(PID.TID 0000.0001)     ;
(PID.TID 0000.0001) ocean_emissivity = /* longwave ocean-surface emissivity [-] */
(PID.TID 0000.0001)                 9.700000000000000E-01
(PID.TID 0000.0001)     ;
(PID.TID 0000.0001) ice_emissivity = /* longwave seaice emissivity [-] */
(PID.TID 0000.0001)                 9.500000000000000E-01
(PID.TID 0000.0001)     ;
(PID.TID 0000.0001) snow_emissivity = /* longwave snow  emissivity [-] */
(PID.TID 0000.0001)                 9.500000000000000E-01
(PID.TID 0000.0001)     ;
(PID.TID 0000.0001) 
(PID.TID 0000.0001)  EXF main CPP flags:
(PID.TID 0000.0001) 
(PID.TID 0000.0001) // USE_EXF_INTERPOLATION:              defined
(PID.TID 0000.0001) // ALLOW_ATM_TEMP:                     defined
(PID.TID 0000.0001) // ALLOW_ATM_WIND (useAtmWind):        defined
(PID.TID 0000.0001) // ALLOW_DOWNWARD_RADIATION:           defined
(PID.TID 0000.0001) // ALLOW_BULKFORMULAE:                 defined
(PID.TID 0000.0001) 
(PID.TID 0000.0001)    Zonal wind forcing starts at                          0.
(PID.TID 0000.0001)    Zonal wind forcing period is                       3600.
(PID.TID 0000.0001)    Zonal wind forcing repeat-cycle is                    0.
(PID.TID 0000.0001)    Zonal wind forcing is read from file:
(PID.TID 0000.0001)    >> era_forcing/ERA5_u10m <<
(PID.TID 0000.0001)    interpolate "uwind" (method= 12 ):
(PID.TID 0000.0001)    lon0=   0.00000, nlon=  1280, lon_inc= 0.2812500
(PID.TID 0000.0001)    lat0= -89.78489, nlat=   640, inc(min,max)= 0.27868 0.28103
(PID.TID 0000.0001) 
(PID.TID 0000.0001)    Meridional wind forcing starts at                     0.
(PID.TID 0000.0001)    Meridional wind forcing period is                  3600.
(PID.TID 0000.0001)    Meridional wind forcing repeat-cycle is               0.
(PID.TID 0000.0001)    Meridional wind forcing is read from file:
(PID.TID 0000.0001)    >> era_forcing/ERA5_v10m <<
(PID.TID 0000.0001)    interpolate "vwind" (method= 22 ):
(PID.TID 0000.0001)    lon0=   0.00000, nlon=  1280, lon_inc= 0.2812500
(PID.TID 0000.0001)    lat0= -89.78489, nlat=   640, inc(min,max)= 0.27868 0.28103
(PID.TID 0000.0001)     Interp. U & V comp. together: uvInterp_wind =    T
(PID.TID 0000.0001) 
(PID.TID 0000.0001)    Atmospheric temperature starts at                     0.
(PID.TID 0000.0001)    Atmospheric temperature period is                  3600.
(PID.TID 0000.0001)    Atmospheric temperature repeat-cycle is               0.
(PID.TID 0000.0001)    Atmospheric temperature is read from file:
(PID.TID 0000.0001)    >> era_forcing/ERA5_tmp2m_degC <<
(PID.TID 0000.0001)    interpolate "atemp" (method=  1 ):
(PID.TID 0000.0001)    lon0=   0.00000, nlon=  1280, lon_inc= 0.2812500
(PID.TID 0000.0001)    lat0= -89.78489, nlat=   640, inc(min,max)= 0.27868 0.28103
(PID.TID 0000.0001) 
(PID.TID 0000.0001)    Atmospheric specific humidity starts at               0.
(PID.TID 0000.0001)    Atmospheric specific humidity period is            3600.
(PID.TID 0000.0001)    Atmospheric specific humidity rep-cycle is            0.
(PID.TID 0000.0001)    Atmospheric specific humidity is read from file:
(PID.TID 0000.0001)    >> era_forcing/ERA5_spfh2m <<
(PID.TID 0000.0001)    interpolate "aqh" (method=  1 ):
(PID.TID 0000.0001)    lon0=   0.00000, nlon=  1280, lon_inc= 0.2812500
(PID.TID 0000.0001)    lat0= -89.78489, nlat=   640, inc(min,max)= 0.27868 0.28103
(PID.TID 0000.0001) 
(PID.TID 0000.0001) // ALLOW_READ_TURBFLUXES:          NOT defined
(PID.TID 0000.0001) // EXF_READ_EVAP:                  NOT defined
(PID.TID 0000.0001) 
(PID.TID 0000.0001)    Precipitation data starts at                       1800.
(PID.TID 0000.0001)    Precipitation data period is                       3600.
(PID.TID 0000.0001)    Precipitation data repeat-cycle is                    0.
(PID.TID 0000.0001)    Precipitation data is read from file:
(PID.TID 0000.0001)    >> era_forcing/ERA5_rain <<
(PID.TID 0000.0001)    interpolate "precip" (method=  1 ):
(PID.TID 0000.0001)    lon0=   0.00000, nlon=  1280, lon_inc= 0.2812500
(PID.TID 0000.0001)    lat0= -89.78489, nlat=   640, inc(min,max)= 0.27868 0.28103
(PID.TID 0000.0001) 
(PID.TID 0000.0001) // ALLOW_RUNOFF:                       defined
(PID.TID 0000.0001)    Runoff data period is                               -12.
(PID.TID 0000.0001)    Runoff data is read from file:
(PID.TID 0000.0001)    >> runoff1p2472-360x180x12.bin <<
(PID.TID 0000.0001)    interpolate "runoff" (method=  1 ):
(PID.TID 0000.0001)    lon0=   0.50000, nlon=   360, lon_inc= 1.0000000
(PID.TID 0000.0001)    lat0= -89.50000, nlat=   180, lat_inc= 1.0000000
(PID.TID 0000.0001) 
(PID.TID 0000.0001) // ALLOW_RUNOFTEMP:                NOT defined
(PID.TID 0000.0001) // ALLOW_SALTFLX:                      defined
(PID.TID 0000.0001) 
(PID.TID 0000.0001)    Downward shortwave flux starts at                  1800.
(PID.TID 0000.0001)    Downward shortwave flux period is                  3600.
(PID.TID 0000.0001)    Downward shortwave flux repeat-cycle is               0.
(PID.TID 0000.0001)    Downward shortwave flux is read from file:
(PID.TID 0000.0001)    >> era_forcing/ERA5_dsw <<
(PID.TID 0000.0001)    interpolate "swdown" (method=  1 ):
(PID.TID 0000.0001)    lon0=   0.00000, nlon=  1280, lon_inc= 0.2812500
(PID.TID 0000.0001)    lat0= -89.78489, nlat=   640, inc(min,max)= 0.27868 0.28103
(PID.TID 0000.0001) 
(PID.TID 0000.0001)    Downward longwave flux starts at                   1800.
(PID.TID 0000.0001)    Downward longwave flux period is                   3600.
(PID.TID 0000.0001)    Downward longwave flux repeat-cycle is                0.
(PID.TID 0000.0001)    Downward longwave flux is read from file:
(PID.TID 0000.0001)    >> era_forcing/ERA5_dlw <<
(PID.TID 0000.0001)    interpolate "lwdown" (method=  1 ):
(PID.TID 0000.0001)    lon0=   0.00000, nlon=  1280, lon_inc= 0.2812500
(PID.TID 0000.0001)    lat0= -89.78489, nlat=   640, inc(min,max)= 0.27868 0.28103
(PID.TID 0000.0001) 
(PID.TID 0000.0001)    Atmospheric pressure forcing starts at                0.
(PID.TID 0000.0001)    Atmospheric pressure forcing period is             3600.
(PID.TID 0000.0001)    Atmospheric pressure forcing rep-cycle is             0.
(PID.TID 0000.0001)    Atmospheric pressure forcing is read from file:
(PID.TID 0000.0001)    >> era_forcing/ERA5_pres <<
(PID.TID 0000.0001)    interpolate "apressure" (method=  1 ):
(PID.TID 0000.0001)    lon0=   0.00000, nlon=  1280, lon_inc= 0.2812500
(PID.TID 0000.0001)    lat0= -89.78489, nlat=   640, inc(min,max)= 0.27868 0.28103
(PID.TID 0000.0001) 
(PID.TID 0000.0001)    Tidal geopotential starts at                          0.
(PID.TID 0000.0001)    Tidal geopotential period is                       3600.
(PID.TID 0000.0001)    Tidal geopotential repeat-cycle is                    0.
(PID.TID 0000.0001)    Tidal geopotential is read from file:
(PID.TID 0000.0001)    >> tide_IAU_EARTH <<
(PID.TID 0000.0001)    interpolate "tidePot" (method=  1 ):
(PID.TID 0000.0001)    lon0=   0.00000, nlon=   360, lon_inc= 1.0000000
(PID.TID 0000.0001)    lat0= -90.00000, nlat=   181, lat_inc= 1.0000000
(PID.TID 0000.0001) 
(PID.TID 0000.0001) // =======================================================
(PID.TID 0000.0001) // External forcing (EXF) climatology configuration :
(PID.TID 0000.0001) // =======================================================
(PID.TID 0000.0001) 
(PID.TID 0000.0001) // ALLOW_CLIMSST_RELAXATION:       NOT defined
(PID.TID 0000.0001) 
(PID.TID 0000.0001) // ALLOW_CLIMSSS_RELAXATION:       NOT defined
(PID.TID 0000.0001) 
(PID.TID 0000.0001) // =======================================================
(PID.TID 0000.0001) // External forcing (EXF) configuration  >>> END <<<
(PID.TID 0000.0001) // =======================================================
(PID.TID 0000.0001) 
(PID.TID 0000.0001) ------------------------------------------------------------
(PID.TID 0000.0001) DIAGNOSTICS_SET_LEVELS: done
(PID.TID 0000.0001)  Total Nb of available Diagnostics: ndiagt=   213
(PID.TID 0000.0001)  write list of available Diagnostics to file: available_diagnostics.log
(PID.TID 0000.0001) SETDIAG: Allocate  1 x  1 Levels for Diagnostic #    23 ETAN
(PID.TID 0000.0001) SETDIAG: Allocate  1 x  1 Levels for Diagnostic #    80 oceTAUX
(PID.TID 0000.0001) SETDIAG: Allocate  1 x  1 Levels for Diagnostic #    81 oceTAUY
(PID.TID 0000.0001) SETDIAG: Allocate  1 x  1 Levels for Diagnostic #   185 EXFuwind
(PID.TID 0000.0001) SETDIAG: Allocate  1 x  1 Levels for Diagnostic #   186 EXFvwind
(PID.TID 0000.0001) SETDIAG: Allocate100 x  1 Levels for Diagnostic #    26 THETA
(PID.TID 0000.0001) SETDIAG: Allocate100 x  1 Levels for Diagnostic #    27 SALT
(PID.TID 0000.0001) SETDIAG: Allocate100 x  1 Levels for Diagnostic #    30 UVEL
(PID.TID 0000.0001) SETDIAG: Allocate100 x  1 Levels for Diagnostic #    31 VVEL
(PID.TID 0000.0001) SETDIAG: Allocate100 x  1 Levels for Diagnostic #    32 WVEL
(PID.TID 0000.0001) SETDIAG: Allocate100 x  1 Levels for Diagnostic #    36 UVELSQ
(PID.TID 0000.0001) SETDIAG: Allocate100 x  1 Levels for Diagnostic #    37 VVELSQ
(PID.TID 0000.0001) SETDIAG: Allocate100 x  1 Levels for Diagnostic #    52 WTHMASS
(PID.TID 0000.0001) SETDIAG: Allocate100 x  1 Levels for Diagnostic #    55 WSLTMASS
(PID.TID 0000.0001)   space allocated for all diagnostics:     905 levels
(PID.TID 0000.0001)   set mate pointer for diag #    80  oceTAUX  , Parms: UU      U1 , mate:    81
(PID.TID 0000.0001)   set mate pointer for diag #    81  oceTAUY  , Parms: VV      U1 , mate:    80
(PID.TID 0000.0001)   set mate pointer for diag #    30  UVEL     , Parms: UUR     MR , mate:    31
(PID.TID 0000.0001)   set mate pointer for diag #    31  VVEL     , Parms: VVR     MR , mate:    30
(PID.TID 0000.0001)   set mate pointer for diag #    36  UVELSQ   , Parms: UURP    MR , mate:    37
(PID.TID 0000.0001)   set mate pointer for diag #    37  VVELSQ   , Parms: VVRP    MR , mate:    36
(PID.TID 0000.0001) DIAGNOSTICS_SET_POINTERS: Set levels for Outp.Stream: diags/surface
(PID.TID 0000.0001)  Levels:       1.
(PID.TID 0000.0001) DIAGNOSTICS_SET_POINTERS: Set levels for Outp.Stream: diags/interior
(PID.TID 0000.0001)  Levels:       1.   2.   3.   4.   5.   6.   7.   8.   9.  10.  11.  12.  13.  14.  15.  16.  17.  18.  19.  20.
(PID.TID 0000.0001)  Levels:      21.  22.  23.  24.  25.  26.  27.  28.  29.  30.  31.  32.  33.  34.  35.  36.  37.  38.  39.  40.
(PID.TID 0000.0001)  Levels:      41.  42.  43.  44.  45.  46.  47.  48.  49.  50.  51.  52.  53.  54.  55.  56.  57.  58.  59.  60.
(PID.TID 0000.0001)  Levels:      61.  62.  63.  64.  65.  66.  67.  68.  69.  70.  71.  72.  73.  74.  75.  76.  77.  78.  79.  80.
(PID.TID 0000.0001)  Levels:      81.  82.  83.  84.  85.  86.  87.  88.  89.  90.  91.  92.  93.  94.  95.  96.  97.  98.  99. 100.
(PID.TID 0000.0001) DIAGNOSTICS_SET_POINTERS: done
(PID.TID 0000.0001) ------------------------------------------------------------
(PID.TID 0000.0001) DIAGSTATS_SET_REGIONS: define no region
(PID.TID 0000.0001) ------------------------------------------------------------
(PID.TID 0000.0001)   space allocated for all stats-diags:       0 levels
(PID.TID 0000.0001) DIAGSTATS_SET_POINTERS: done
(PID.TID 0000.0001) ------------------------------------------------------------
(PID.TID 0000.0001) %MON fCori_max                    =   1.0031064840358E-04
(PID.TID 0000.0001) %MON fCori_min                    =   6.5921486603128E-05
(PID.TID 0000.0001) %MON fCori_mean                   =   8.3936872523081E-05
(PID.TID 0000.0001) %MON fCori_sd                     =   9.8545159722241E-06
(PID.TID 0000.0001) %MON fCoriG_max                   =   1.0028465045639E-04
(PID.TID 0000.0001) %MON fCoriG_min                   =   6.5882690911173E-05
(PID.TID 0000.0001) %MON fCoriG_mean                  =   8.3904363816394E-05
(PID.TID 0000.0001) %MON fCoriG_sd                    =   9.8581982025545E-06
(PID.TID 0000.0001) %MON fCoriCos_max                 =   1.3009374988389E-04
(PID.TID 0000.0001) %MON fCoriCos_min                 =   1.0586689743103E-04
(PID.TID 0000.0001) %MON fCoriCos_mean                =   1.1865496523699E-04
(PID.TID 0000.0001) %MON fCoriCos_sd                  =   6.9652943530273E-06
(PID.TID 0000.0001) INI_CG2D: CG2D normalisation factor =  1.4987118910715993E-04
(PID.TID 0000.0001) INI_CG2D: cg2dTolerance = 7.057349561527462E-12 (Area=1.1301464310E+13)
(PID.TID 0000.0001) 
(PID.TID 0000.0001) // =======================================================
(PID.TID 0000.0001) // Model configuration
(PID.TID 0000.0001) // =======================================================
(PID.TID 0000.0001) //
(PID.TID 0000.0001) // "Physical" paramters ( PARM01 in namelist )
(PID.TID 0000.0001) //
(PID.TID 0000.0001) buoyancyRelation = /* Type of relation to get Buoyancy */
(PID.TID 0000.0001)               'OCEANIC'
(PID.TID 0000.0001)     ;
(PID.TID 0000.0001) fluidIsAir   =  /* fluid major constituent is Air */
(PID.TID 0000.0001)                   F
(PID.TID 0000.0001)     ;
(PID.TID 0000.0001) fluidIsWater =  /* fluid major constituent is Water */
(PID.TID 0000.0001)                   T
(PID.TID 0000.0001)     ;
(PID.TID 0000.0001) usingPCoords =  /* use p (or p*) vertical coordinate */
(PID.TID 0000.0001)                   F
(PID.TID 0000.0001)     ;
(PID.TID 0000.0001) usingZCoords =  /* use z (or z*) vertical coordinate */
(PID.TID 0000.0001)                   T
(PID.TID 0000.0001)     ;
(PID.TID 0000.0001) tRef =   /* Reference temperature profile ( oC or K ) */
(PID.TID 0000.0001)     5 @  1.889000000000000E+01,             /* K =  1:  5 */
(PID.TID 0000.0001)                 1.887000000000000E+01,      /* K =  6 */
(PID.TID 0000.0001)                 1.885000000000000E+01,      /* K =  7 */
(PID.TID 0000.0001)                 1.882000000000000E+01,      /* K =  8 */
(PID.TID 0000.0001)                 1.880000000000000E+01,      /* K =  9 */
(PID.TID 0000.0001)                 1.873000000000000E+01,      /* K = 10 */
(PID.TID 0000.0001)                 1.863000000000000E+01,      /* K = 11 */
(PID.TID 0000.0001)                 1.849000000000000E+01,      /* K = 12 */
(PID.TID 0000.0001)                 1.828000000000000E+01,      /* K = 13 */
(PID.TID 0000.0001)                 1.808000000000000E+01,      /* K = 14 */
(PID.TID 0000.0001)                 1.786000000000000E+01,      /* K = 15 */
(PID.TID 0000.0001)                 1.763000000000000E+01,      /* K = 16 */
(PID.TID 0000.0001)                 1.740000000000000E+01,      /* K = 17 */
(PID.TID 0000.0001)                 1.718000000000000E+01,      /* K = 18 */
(PID.TID 0000.0001)                 1.695000000000000E+01,      /* K = 19 */
(PID.TID 0000.0001)                 1.673000000000000E+01,      /* K = 20 */
(PID.TID 0000.0001)                 1.652000000000000E+01,      /* K = 21 */
(PID.TID 0000.0001)                 1.631000000000000E+01,      /* K = 22 */
(PID.TID 0000.0001)                 1.610000000000000E+01,      /* K = 23 */
(PID.TID 0000.0001)                 1.589000000000000E+01,      /* K = 24 */
(PID.TID 0000.0001)                 1.569000000000000E+01,      /* K = 25 */
(PID.TID 0000.0001)                 1.549000000000000E+01,      /* K = 26 */
(PID.TID 0000.0001)                 1.528000000000000E+01,      /* K = 27 */
(PID.TID 0000.0001)                 1.508000000000000E+01,      /* K = 28 */
(PID.TID 0000.0001)                 1.488000000000000E+01,      /* K = 29 */
(PID.TID 0000.0001)                 1.467000000000000E+01,      /* K = 30 */
(PID.TID 0000.0001)                 1.447000000000000E+01,      /* K = 31 */
(PID.TID 0000.0001)                 1.425000000000000E+01,      /* K = 32 */
(PID.TID 0000.0001)                 1.403000000000000E+01,      /* K = 33 */
(PID.TID 0000.0001)                 1.380000000000000E+01,      /* K = 34 */
(PID.TID 0000.0001)                 1.355000000000000E+01,      /* K = 35 */
(PID.TID 0000.0001)                 1.329000000000000E+01,      /* K = 36 */
(PID.TID 0000.0001)                 1.301000000000000E+01,      /* K = 37 */
(PID.TID 0000.0001)                 1.273000000000000E+01,      /* K = 38 */
(PID.TID 0000.0001)                 1.242000000000000E+01,      /* K = 39 */
(PID.TID 0000.0001)                 1.211000000000000E+01,      /* K = 40 */
(PID.TID 0000.0001)                 1.178000000000000E+01,      /* K = 41 */
(PID.TID 0000.0001)                 1.143000000000000E+01,      /* K = 42 */
(PID.TID 0000.0001)                 1.107000000000000E+01,      /* K = 43 */
(PID.TID 0000.0001)                 1.070000000000000E+01,      /* K = 44 */
(PID.TID 0000.0001)                 1.031000000000000E+01,      /* K = 45 */
(PID.TID 0000.0001)                 9.930000000000000E+00,      /* K = 46 */
(PID.TID 0000.0001)                 9.529999999999999E+00,      /* K = 47 */
(PID.TID 0000.0001)                 9.109999999999999E+00,      /* K = 48 */
(PID.TID 0000.0001)                 8.710000000000001E+00,      /* K = 49 */
(PID.TID 0000.0001)                 8.289999999999999E+00,      /* K = 50 */
(PID.TID 0000.0001)                 7.890000000000000E+00,      /* K = 51 */
(PID.TID 0000.0001)                 7.510000000000000E+00,      /* K = 52 */
(PID.TID 0000.0001)                 7.130000000000000E+00,      /* K = 53 */
(PID.TID 0000.0001)                 6.780000000000000E+00,      /* K = 54 */
(PID.TID 0000.0001)                 6.440000000000000E+00,      /* K = 55 */
(PID.TID 0000.0001)                 6.110000000000000E+00,      /* K = 56 */
(PID.TID 0000.0001)                 5.810000000000000E+00,      /* K = 57 */
(PID.TID 0000.0001)                 5.510000000000000E+00,      /* K = 58 */
(PID.TID 0000.0001)                 5.230000000000000E+00,      /* K = 59 */
(PID.TID 0000.0001)                 4.970000000000000E+00,      /* K = 60 */
(PID.TID 0000.0001)                 4.730000000000000E+00,      /* K = 61 */
(PID.TID 0000.0001)                 4.510000000000000E+00,      /* K = 62 */
(PID.TID 0000.0001)                 4.300000000000000E+00,      /* K = 63 */
(PID.TID 0000.0001)                 4.110000000000000E+00,      /* K = 64 */
(PID.TID 0000.0001)                 3.940000000000000E+00,      /* K = 65 */
(PID.TID 0000.0001)                 3.780000000000000E+00,      /* K = 66 */
(PID.TID 0000.0001)                 3.630000000000000E+00,      /* K = 67 */
(PID.TID 0000.0001)                 3.500000000000000E+00,      /* K = 68 */
(PID.TID 0000.0001)                 3.380000000000000E+00,      /* K = 69 */
(PID.TID 0000.0001)                 3.250000000000000E+00,      /* K = 70 */
(PID.TID 0000.0001)                 3.140000000000000E+00,      /* K = 71 */
(PID.TID 0000.0001)                 3.040000000000000E+00,      /* K = 72 */
(PID.TID 0000.0001)                 2.940000000000000E+00,      /* K = 73 */
(PID.TID 0000.0001)                 2.830000000000000E+00,      /* K = 74 */
(PID.TID 0000.0001)                 2.740000000000000E+00,      /* K = 75 */
(PID.TID 0000.0001)                 2.640000000000000E+00,      /* K = 76 */
(PID.TID 0000.0001)                 2.540000000000000E+00,      /* K = 77 */
(PID.TID 0000.0001)                 2.450000000000000E+00,      /* K = 78 */
(PID.TID 0000.0001)                 2.360000000000000E+00,      /* K = 79 */
(PID.TID 0000.0001)                 2.270000000000000E+00,      /* K = 80 */
(PID.TID 0000.0001)                 2.190000000000000E+00,      /* K = 81 */
(PID.TID 0000.0001)                 2.100000000000000E+00,      /* K = 82 */
(PID.TID 0000.0001)                 2.030000000000000E+00,      /* K = 83 */
(PID.TID 0000.0001)                 1.950000000000000E+00,      /* K = 84 */
(PID.TID 0000.0001)                 1.860000000000000E+00,      /* K = 85 */
(PID.TID 0000.0001)                 1.780000000000000E+00,      /* K = 86 */
(PID.TID 0000.0001)                 1.700000000000000E+00,      /* K = 87 */
(PID.TID 0000.0001)                 1.630000000000000E+00,      /* K = 88 */
(PID.TID 0000.0001)                 1.550000000000000E+00,      /* K = 89 */
(PID.TID 0000.0001)                 1.480000000000000E+00,      /* K = 90 */
(PID.TID 0000.0001)                 1.410000000000000E+00,      /* K = 91 */
(PID.TID 0000.0001)                 1.340000000000000E+00,      /* K = 92 */
(PID.TID 0000.0001)                 1.270000000000000E+00,      /* K = 93 */
(PID.TID 0000.0001)                 1.200000000000000E+00,      /* K = 94 */
(PID.TID 0000.0001)                 1.130000000000000E+00,      /* K = 95 */
(PID.TID 0000.0001)                 1.060000000000000E+00,      /* K = 96 */
(PID.TID 0000.0001)                 1.000000000000000E+00,      /* K = 97 */
(PID.TID 0000.0001)                 9.600000000000000E-01,      /* K = 98 */
(PID.TID 0000.0001)                 9.300000000000000E-01,      /* K = 99 */
(PID.TID 0000.0001)                 9.100000000000000E-01       /* K =100 */
(PID.TID 0000.0001)     ;
(PID.TID 0000.0001) sRef =   /* Reference salinity profile ( psu ) */
(PID.TID 0000.0001)     6 @  3.484000000000000E+01,             /* K =  1:  6 */
(PID.TID 0000.0001)     3 @  3.485000000000000E+01,             /* K =  7:  9 */
(PID.TID 0000.0001)                 3.486000000000000E+01,      /* K = 10 */
(PID.TID 0000.0001)                 3.487000000000000E+01,      /* K = 11 */
(PID.TID 0000.0001)                 3.488000000000000E+01,      /* K = 12 */
(PID.TID 0000.0001)                 3.490000000000000E+01,      /* K = 13 */
(PID.TID 0000.0001)                 3.491000000000000E+01,      /* K = 14 */
(PID.TID 0000.0001)                 3.493000000000000E+01,      /* K = 15 */
(PID.TID 0000.0001)                 3.495000000000000E+01,      /* K = 16 */
(PID.TID 0000.0001)                 3.496000000000000E+01,      /* K = 17 */
(PID.TID 0000.0001)                 3.498000000000000E+01,      /* K = 18 */
(PID.TID 0000.0001)                 3.499000000000000E+01,      /* K = 19 */
(PID.TID 0000.0001)                 3.500000000000000E+01,      /* K = 20 */
(PID.TID 0000.0001)                 3.501000000000000E+01,      /* K = 21 */
(PID.TID 0000.0001)                 3.502000000000000E+01,      /* K = 22 */
(PID.TID 0000.0001)                 3.503000000000000E+01,      /* K = 23 */
(PID.TID 0000.0001)                 3.504000000000000E+01,      /* K = 24 */
(PID.TID 0000.0001)                 3.505000000000000E+01,      /* K = 25 */
(PID.TID 0000.0001)                 3.506000000000000E+01,      /* K = 26 */
(PID.TID 0000.0001)     7 @  3.507000000000000E+01,             /* K = 27: 33 */
(PID.TID 0000.0001)                 3.506000000000000E+01,      /* K = 34 */
(PID.TID 0000.0001)                 3.505000000000000E+01,      /* K = 35 */
(PID.TID 0000.0001)                 3.504000000000000E+01,      /* K = 36 */
(PID.TID 0000.0001)                 3.503000000000000E+01,      /* K = 37 */
(PID.TID 0000.0001)                 3.502000000000000E+01,      /* K = 38 */
(PID.TID 0000.0001)                 3.501000000000000E+01,      /* K = 39 */
(PID.TID 0000.0001)                 3.499000000000000E+01,      /* K = 40 */
(PID.TID 0000.0001)                 3.497000000000000E+01,      /* K = 41 */
(PID.TID 0000.0001)                 3.495000000000000E+01,      /* K = 42 */
(PID.TID 0000.0001)                 3.492000000000000E+01,      /* K = 43 */
(PID.TID 0000.0001)                 3.490000000000000E+01,      /* K = 44 */
(PID.TID 0000.0001)                 3.487000000000000E+01,      /* K = 45 */
(PID.TID 0000.0001)                 3.484000000000000E+01,      /* K = 46 */
(PID.TID 0000.0001)                 3.481000000000000E+01,      /* K = 47 */
(PID.TID 0000.0001)                 3.478000000000000E+01,      /* K = 48 */
(PID.TID 0000.0001)                 3.475000000000000E+01,      /* K = 49 */
(PID.TID 0000.0001)                 3.472000000000000E+01,      /* K = 50 */
(PID.TID 0000.0001)                 3.469000000000000E+01,      /* K = 51 */
(PID.TID 0000.0001)                 3.467000000000000E+01,      /* K = 52 */
(PID.TID 0000.0001)                 3.465000000000000E+01,      /* K = 53 */
(PID.TID 0000.0001)                 3.462000000000000E+01,      /* K = 54 */
(PID.TID 0000.0001)                 3.461000000000000E+01,      /* K = 55 */
(PID.TID 0000.0001)                 3.460000000000000E+01,      /* K = 56 */
(PID.TID 0000.0001)     2 @  3.459000000000000E+01,             /* K = 57: 58 */
(PID.TID 0000.0001)                 3.458000000000000E+01,      /* K = 59 */
(PID.TID 0000.0001)     2 @  3.459000000000000E+01,             /* K = 60: 61 */
(PID.TID 0000.0001)     2 @  3.460000000000000E+01,             /* K = 62: 63 */
(PID.TID 0000.0001)                 3.461000000000000E+01,      /* K = 64 */
(PID.TID 0000.0001)                 3.462000000000000E+01,      /* K = 65 */
(PID.TID 0000.0001)                 3.463000000000000E+01,      /* K = 66 */
(PID.TID 0000.0001)                 3.464000000000000E+01,      /* K = 67 */
(PID.TID 0000.0001)                 3.465000000000000E+01,      /* K = 68 */
(PID.TID 0000.0001)                 3.466000000000000E+01,      /* K = 69 */
(PID.TID 0000.0001)     2 @  3.467000000000000E+01,             /* K = 70: 71 */
(PID.TID 0000.0001)                 3.468000000000000E+01,      /* K = 72 */
(PID.TID 0000.0001)                 3.469000000000000E+01,      /* K = 73 */
(PID.TID 0000.0001)                 3.470000000000000E+01,      /* K = 74 */
(PID.TID 0000.0001)     2 @  3.471000000000000E+01,             /* K = 75: 76 */
(PID.TID 0000.0001)     2 @  3.472000000000000E+01,             /* K = 77: 78 */
(PID.TID 0000.0001)     3 @  3.473000000000000E+01,             /* K = 79: 81 */
(PID.TID 0000.0001)     4 @  3.474000000000000E+01,             /* K = 82: 85 */
(PID.TID 0000.0001)                 3.475000000000000E+01,      /* K = 86 */
(PID.TID 0000.0001)     8 @  3.474000000000000E+01,             /* K = 87: 94 */
(PID.TID 0000.0001)     6 @  3.473000000000000E+01              /* K = 95:100 */
(PID.TID 0000.0001)     ;
(PID.TID 0000.0001) useStrainTensionVisc= /* Use StrainTension Form of Viscous Operator */
(PID.TID 0000.0001)                   F
(PID.TID 0000.0001)     ;
(PID.TID 0000.0001) useVariableVisc = /* Use variable horizontal viscosity */
(PID.TID 0000.0001)                   T
(PID.TID 0000.0001)     ;
(PID.TID 0000.0001) useHarmonicVisc = /* Use harmonic horizontal viscosity */
(PID.TID 0000.0001)                   F
(PID.TID 0000.0001)     ;
(PID.TID 0000.0001) useBiharmonicVisc= /* Use biharmonic horiz.  viscosity */
(PID.TID 0000.0001)                   T
(PID.TID 0000.0001)     ;
(PID.TID 0000.0001) useSmag3D = /* Use isotropic 3-D Smagorinsky viscosity */
(PID.TID 0000.0001)                   F
(PID.TID 0000.0001)     ;
(PID.TID 0000.0001) viscAh  =   /* Lateral harmonic viscosity ( m^2/s ) */
(PID.TID 0000.0001)                 0.000000000000000E+00
(PID.TID 0000.0001)     ;
(PID.TID 0000.0001) viscAhMax = /* Maximum lateral harmonic viscosity ( m^2/s ) */
(PID.TID 0000.0001)                 1.000000000000000E+21
(PID.TID 0000.0001)     ;
(PID.TID 0000.0001) viscAhGrid = /* Grid dependent lateral harmonic viscosity ( non-dim. ) */
(PID.TID 0000.0001)                 0.000000000000000E+00
(PID.TID 0000.0001)     ;
(PID.TID 0000.0001) useFullLeith = /* Use Full Form of Leith Viscosity on/off flag*/
(PID.TID 0000.0001)                   F
(PID.TID 0000.0001)     ;
(PID.TID 0000.0001) useAreaViscLength = /* Use area for visc length instead of geom. mean*/
(PID.TID 0000.0001)                   T
(PID.TID 0000.0001)     ;
(PID.TID 0000.0001) viscC2leith = /* Leith harmonic visc. factor (on grad(vort),non-dim.) */
(PID.TID 0000.0001)                 0.000000000000000E+00
(PID.TID 0000.0001)     ;
(PID.TID 0000.0001) viscC2leithD = /* Leith harmonic viscosity factor (on grad(div),non-dim.)*/
(PID.TID 0000.0001)                 0.000000000000000E+00
(PID.TID 0000.0001)     ;
(PID.TID 0000.0001) viscC2smag = /* Smagorinsky harmonic viscosity factor (non-dim.) */
(PID.TID 0000.0001)                 0.000000000000000E+00
(PID.TID 0000.0001)     ;
(PID.TID 0000.0001) viscA4  =   /* Lateral biharmonic viscosity ( m^4/s ) */
(PID.TID 0000.0001)                 0.000000000000000E+00
(PID.TID 0000.0001)     ;
(PID.TID 0000.0001) viscA4Max = /* Maximum biharmonic viscosity ( m^2/s ) */
(PID.TID 0000.0001)                 1.000000000000000E+21
(PID.TID 0000.0001)     ;
(PID.TID 0000.0001) viscA4Grid = /* Grid dependent biharmonic viscosity ( non-dim. ) */
(PID.TID 0000.0001)                 0.000000000000000E+00
(PID.TID 0000.0001)     ;
(PID.TID 0000.0001) viscC4leith = /* Leith biharm viscosity factor (on grad(vort), non-dim.)*/
(PID.TID 0000.0001)                 2.000000000000000E+00
(PID.TID 0000.0001)     ;
(PID.TID 0000.0001) viscC4leithD = /* Leith biharm viscosity factor (on grad(div), non-dim.) */
(PID.TID 0000.0001)                 2.000000000000000E+00
(PID.TID 0000.0001)     ;
(PID.TID 0000.0001) viscC4Smag = /* Smagorinsky biharm viscosity factor (non-dim) */
(PID.TID 0000.0001)                 0.000000000000000E+00
(PID.TID 0000.0001)     ;
(PID.TID 0000.0001) no_slip_sides =  /* Viscous BCs: No-slip sides */
(PID.TID 0000.0001)                   T
(PID.TID 0000.0001)     ;
(PID.TID 0000.0001) sideDragFactor = /* side-drag scaling factor (non-dim) */
(PID.TID 0000.0001)                 2.000000000000000E+00
(PID.TID 0000.0001)     ;
(PID.TID 0000.0001) viscArNr = /* vertical profile of vertical viscosity ( m^2/s )*/
(PID.TID 0000.0001)   100 @  5.000000000000000E-04              /* K =  1:100 */
(PID.TID 0000.0001)     ;
(PID.TID 0000.0001) no_slip_bottom =  /* Viscous BCs: No-slip bottom */
(PID.TID 0000.0001)                   T
(PID.TID 0000.0001)     ;
(PID.TID 0000.0001) bottomVisc_pCell = /* Partial-cell in bottom Visc. BC */
(PID.TID 0000.0001)                   F
(PID.TID 0000.0001)     ;
(PID.TID 0000.0001) bottomDragLinear = /* linear bottom-drag coefficient ( m/s ) */
(PID.TID 0000.0001)                 0.000000000000000E+00
(PID.TID 0000.0001)     ;
(PID.TID 0000.0001) bottomDragQuadratic = /* quadratic bottom-drag coefficient (-) */
(PID.TID 0000.0001)                 2.000000000000000E-03
(PID.TID 0000.0001)     ;
(PID.TID 0000.0001) selectBotDragQuadr = /* select quadratic bottom drag options */
(PID.TID 0000.0001)                       0
(PID.TID 0000.0001)     ;
(PID.TID 0000.0001) diffKhT =   /* Laplacian diffusion of heat laterally ( m^2/s ) */
(PID.TID 0000.0001)                 0.000000000000000E+00
(PID.TID 0000.0001)     ;
(PID.TID 0000.0001) diffK4T =   /* Biharmonic diffusion of heat laterally ( m^4/s ) */
(PID.TID 0000.0001)                 0.000000000000000E+00
(PID.TID 0000.0001)     ;
(PID.TID 0000.0001) diffKhS =   /* Laplacian diffusion of salt laterally ( m^2/s ) */
(PID.TID 0000.0001)                 0.000000000000000E+00
(PID.TID 0000.0001)     ;
(PID.TID 0000.0001) diffK4S =   /* Biharmonic diffusion of salt laterally ( m^4/s ) */
(PID.TID 0000.0001)                 0.000000000000000E+00
(PID.TID 0000.0001)     ;
(PID.TID 0000.0001) diffKrNrT = /* vertical profile of vertical diffusion of Temp ( m^2/s )*/
(PID.TID 0000.0001)   100 @  1.000000000000000E-05              /* K =  1:100 */
(PID.TID 0000.0001)     ;
(PID.TID 0000.0001) diffKrNrS = /* vertical profile of vertical diffusion of Salt ( m^2/s )*/
(PID.TID 0000.0001)   100 @  1.000000000000000E-05              /* K =  1:100 */
(PID.TID 0000.0001)     ;
(PID.TID 0000.0001) diffKrBL79surf = /* Surface diffusion for Bryan and Lewis 79 ( m^2/s ) */
(PID.TID 0000.0001)                 0.000000000000000E+00
(PID.TID 0000.0001)     ;
(PID.TID 0000.0001) diffKrBL79deep = /* Deep diffusion for Bryan and Lewis 1979 ( m^2/s ) */
(PID.TID 0000.0001)                 0.000000000000000E+00
(PID.TID 0000.0001)     ;
(PID.TID 0000.0001) diffKrBL79scl = /* Depth scale for Bryan and Lewis 1979 ( m ) */
(PID.TID 0000.0001)                 2.000000000000000E+02
(PID.TID 0000.0001)     ;
(PID.TID 0000.0001) diffKrBL79Ho = /* Turning depth for Bryan and Lewis 1979 ( m ) */
(PID.TID 0000.0001)                -2.000000000000000E+03
(PID.TID 0000.0001)     ;
(PID.TID 0000.0001) ivdc_kappa = /* Implicit Vertical Diffusivity for Convection ( m^2/s) */
(PID.TID 0000.0001)                 0.000000000000000E+00
(PID.TID 0000.0001)     ;
(PID.TID 0000.0001) hMixCriteria=  /* Criteria for mixed-layer diagnostic */
(PID.TID 0000.0001)                -8.000000000000000E-01
(PID.TID 0000.0001)     ;
(PID.TID 0000.0001) dRhoSmall =  /* Parameter for mixed-layer diagnostic */
(PID.TID 0000.0001)                 1.000000000000000E-06
(PID.TID 0000.0001)     ;
(PID.TID 0000.0001) hMixSmooth=  /* Smoothing parameter for mixed-layer diagnostic */
(PID.TID 0000.0001)                 0.000000000000000E+00
(PID.TID 0000.0001)     ;
(PID.TID 0000.0001) eosType =  /* Type of Equation of State */
(PID.TID 0000.0001)               'JMD95Z'
(PID.TID 0000.0001)     ;
(PID.TID 0000.0001) selectP_inEOS_Zc = /* select pressure to use in EOS (0,1,2,3) */
(PID.TID 0000.0001)                       0
(PID.TID 0000.0001)     0= -g*rhoConst*z ; 1= pRef (from tRef,sRef); 2= Hyd P ; 3= Hyd+NH P
(PID.TID 0000.0001)     ;
(PID.TID 0000.0001) HeatCapacity_Cp =  /* Specific heat capacity ( J/kg/K ) */
(PID.TID 0000.0001)                 3.994000000000000E+03
(PID.TID 0000.0001)     ;
(PID.TID 0000.0001) celsius2K = /* 0 degree Celsius converted to Kelvin ( K ) */
(PID.TID 0000.0001)                 2.731500000000000E+02
(PID.TID 0000.0001)     ;
(PID.TID 0000.0001) rhoConst  = /* Reference density (Boussinesq)  ( kg/m^3 ) */
(PID.TID 0000.0001)                 1.029000000000000E+03
(PID.TID 0000.0001)     ;
(PID.TID 0000.0001) rhoFacC = /* normalized Reference density @ cell-Center (-) */
(PID.TID 0000.0001)   100 @  1.000000000000000E+00              /* K =  1:100 */
(PID.TID 0000.0001)     ;
(PID.TID 0000.0001) rhoFacF = /* normalized Reference density @ W-Interface (-) */
(PID.TID 0000.0001)   101 @  1.000000000000000E+00              /* K =  1:101 */
(PID.TID 0000.0001)     ;
(PID.TID 0000.0001) rhoConstFresh = /* Fresh-water reference density ( kg/m^3 ) */
(PID.TID 0000.0001)                 1.000000000000000E+03
(PID.TID 0000.0001)     ;
(PID.TID 0000.0001) gravity =   /* Gravitational acceleration ( m/s^2 ) */
(PID.TID 0000.0001)                 9.810000000000000E+00
(PID.TID 0000.0001)     ;
(PID.TID 0000.0001) gBaro =   /* Barotropic gravity ( m/s^2 ) */
(PID.TID 0000.0001)                 9.810000000000000E+00
(PID.TID 0000.0001)     ;
(PID.TID 0000.0001) gravFacC = /* gravity factor (vs surf.) @ cell-Center (-) */
(PID.TID 0000.0001)   100 @  1.000000000000000E+00              /* K =  1:100 */
(PID.TID 0000.0001)     ;
(PID.TID 0000.0001) gravFacF = /* gravity factor (vs surf.) @ W-Interface (-) */
(PID.TID 0000.0001)   101 @  1.000000000000000E+00              /* K =  1:101 */
(PID.TID 0000.0001)     ;
(PID.TID 0000.0001) rotationPeriod =   /* Rotation Period ( s ) */
(PID.TID 0000.0001)                 8.616400000000000E+04
(PID.TID 0000.0001)     ;
(PID.TID 0000.0001) omega =   /* Angular velocity ( rad/s ) */
(PID.TID 0000.0001)                 7.292123516990375E-05
(PID.TID 0000.0001)     ;
(PID.TID 0000.0001) f0 =   /* Reference coriolis parameter ( 1/s ) */
(PID.TID 0000.0001)                 1.000000000000000E-04
(PID.TID 0000.0001)     ;
(PID.TID 0000.0001) beta =   /* Beta ( 1/(m.s) ) */
(PID.TID 0000.0001)                 9.999999999999999E-12
(PID.TID 0000.0001)     ;
(PID.TID 0000.0001) fPrime =   /* Second coriolis parameter ( 1/s ) */
(PID.TID 0000.0001)                 0.000000000000000E+00
(PID.TID 0000.0001)     ;
(PID.TID 0000.0001) rigidLid =   /* Rigid lid on/off flag */
(PID.TID 0000.0001)                   F
(PID.TID 0000.0001)     ;
(PID.TID 0000.0001) implicitFreeSurface =   /* Implicit free surface on/off flag */
(PID.TID 0000.0001)                   T
(PID.TID 0000.0001)     ;
(PID.TID 0000.0001) freeSurfFac =   /* Implicit free surface factor */
(PID.TID 0000.0001)                 1.000000000000000E+00
(PID.TID 0000.0001)     ;
(PID.TID 0000.0001) implicSurfPress =  /* Surface Pressure implicit factor (0-1)*/
(PID.TID 0000.0001)                 1.000000000000000E+00
(PID.TID 0000.0001)     ;
(PID.TID 0000.0001) implicDiv2DFlow =  /* Barot. Flow Div. implicit factor (0-1)*/
(PID.TID 0000.0001)                 1.000000000000000E+00
(PID.TID 0000.0001)     ;
(PID.TID 0000.0001) uniformLin_PhiSurf = /* use uniform Bo_surf on/off flag*/
(PID.TID 0000.0001)                   T
(PID.TID 0000.0001)     ;
(PID.TID 0000.0001) uniformFreeSurfLev = /* free-surface level-index is uniform */
(PID.TID 0000.0001)                   T
(PID.TID 0000.0001)     ;
(PID.TID 0000.0001) hFacMin =   /* minimum partial cell factor (hFac) */
(PID.TID 0000.0001)                 2.000000000000000E-01
(PID.TID 0000.0001)     ;
(PID.TID 0000.0001) hFacMinDr = /* minimum partial cell thickness ( m) */
(PID.TID 0000.0001)                 5.000000000000000E+00
(PID.TID 0000.0001)     ;
(PID.TID 0000.0001) exactConserv =  /* Exact Volume Conservation on/off flag*/
(PID.TID 0000.0001)                   T
(PID.TID 0000.0001)     ;
(PID.TID 0000.0001) linFSConserveTr = /* Tracer correction for Lin Free Surface on/off flag*/
(PID.TID 0000.0001)                   F
(PID.TID 0000.0001)     ;
(PID.TID 0000.0001) nonlinFreeSurf = /* Non-linear Free Surf. options (-1,0,1,2,3)*/
(PID.TID 0000.0001)                       0
(PID.TID 0000.0001)      -1,0= Off ; 1,2,3= On, 2=+rescale gU,gV, 3=+update cg2d solv.
(PID.TID 0000.0001)     ;
(PID.TID 0000.0001) hFacInf =   /* lower threshold for hFac (nonlinFreeSurf only)*/
(PID.TID 0000.0001)                 2.000000000000000E-01
(PID.TID 0000.0001)     ;
(PID.TID 0000.0001) hFacSup =   /* upper threshold for hFac (nonlinFreeSurf only)*/
(PID.TID 0000.0001)                 2.000000000000000E+00
(PID.TID 0000.0001)     ;
(PID.TID 0000.0001) select_rStar = /* r* Vertical coord. options (=0 r coord.; >0 uses r*)*/
(PID.TID 0000.0001)                       0
(PID.TID 0000.0001)     ;
(PID.TID 0000.0001) useRealFreshWaterFlux = /* Real Fresh Water Flux on/off flag*/
(PID.TID 0000.0001)                   F
(PID.TID 0000.0001)     ;
(PID.TID 0000.0001) temp_EvPrRn = /* Temp. of Evap/Prec/R (UNSET=use local T)(oC)*/
(PID.TID 0000.0001)                 0.000000000000000E+00
(PID.TID 0000.0001)     ;
(PID.TID 0000.0001) salt_EvPrRn = /* Salin. of Evap/Prec/R (UNSET=use local S)(psu)*/
(PID.TID 0000.0001)                 0.000000000000000E+00
(PID.TID 0000.0001)     ;
(PID.TID 0000.0001) selectAddFluid = /* option for mass source/sink of fluid (=0: off) */
(PID.TID 0000.0001)                       0
(PID.TID 0000.0001)     ;
(PID.TID 0000.0001) temp_addMass = /* Temp. of addMass array (UNSET=use local T)(oC)*/
(PID.TID 0000.0001)                 0.000000000000000E+00
(PID.TID 0000.0001)     ;
(PID.TID 0000.0001) salt_addMass = /* Salin. of addMass array (UNSET=use local S)(psu)*/
(PID.TID 0000.0001)                 0.000000000000000E+00
(PID.TID 0000.0001)     ;
(PID.TID 0000.0001) convertFW2Salt = /* convert F.W. Flux to Salt Flux (-1=use local S)(psu)*/
(PID.TID 0000.0001)                -1.000000000000000E+00
(PID.TID 0000.0001)     ;
(PID.TID 0000.0001) use3Dsolver = /* use 3-D pressure solver on/off flag */
(PID.TID 0000.0001)                   F
(PID.TID 0000.0001)     ;
(PID.TID 0000.0001) nonHydrostatic =  /* Non-Hydrostatic on/off flag */
(PID.TID 0000.0001)                   F
(PID.TID 0000.0001)     ;
(PID.TID 0000.0001) nh_Am2 = /* Non-Hydrostatic terms scaling factor */
(PID.TID 0000.0001)                 1.000000000000000E+00
(PID.TID 0000.0001)     ;
(PID.TID 0000.0001) implicitNHPress = /* Non-Hyd Pressure implicit factor (0-1)*/
(PID.TID 0000.0001)                 1.000000000000000E+00
(PID.TID 0000.0001)     ;
(PID.TID 0000.0001) selectNHfreeSurf = /* Non-Hyd (free-)Surface option */
(PID.TID 0000.0001)                       0
(PID.TID 0000.0001)     ;
(PID.TID 0000.0001) quasiHydrostatic = /* Quasi-Hydrostatic on/off flag */
(PID.TID 0000.0001)                   F
(PID.TID 0000.0001)     ;
(PID.TID 0000.0001) calc_wVelocity = /* vertical velocity calculation on/off flag */
(PID.TID 0000.0001)                   T
(PID.TID 0000.0001)     ;
(PID.TID 0000.0001) momStepping =  /* Momentum equation on/off flag */
(PID.TID 0000.0001)                   T
(PID.TID 0000.0001)     ;
(PID.TID 0000.0001) vectorInvariantMomentum= /* Vector-Invariant Momentum on/off */
(PID.TID 0000.0001)                   T
(PID.TID 0000.0001)     ;
(PID.TID 0000.0001) momAdvection =  /* Momentum advection on/off flag */
(PID.TID 0000.0001)                   T
(PID.TID 0000.0001)     ;
(PID.TID 0000.0001) momViscosity =  /* Momentum viscosity on/off flag */
(PID.TID 0000.0001)                   T
(PID.TID 0000.0001)     ;
(PID.TID 0000.0001) momImplVertAdv= /* Momentum implicit vert. advection on/off*/
(PID.TID 0000.0001)                   F
(PID.TID 0000.0001)     ;
(PID.TID 0000.0001) implicitViscosity = /* Implicit viscosity on/off flag */
(PID.TID 0000.0001)                   T
(PID.TID 0000.0001)     ;
(PID.TID 0000.0001) selectImplicitDrag= /* Implicit bot Drag options (0,1,2)*/
(PID.TID 0000.0001)                       0
(PID.TID 0000.0001)     0= Expl. ; 1= Impl. on provis. Vel ; 2= Fully Impl (with surf.P)
(PID.TID 0000.0001)     ;
(PID.TID 0000.0001) metricTerms =  /* metric-Terms on/off flag */
(PID.TID 0000.0001)                   T
(PID.TID 0000.0001)     ;
(PID.TID 0000.0001) useNHMTerms = /* Non-Hydrostatic Metric-Terms on/off */
(PID.TID 0000.0001)                   F
(PID.TID 0000.0001)     ;
(PID.TID 0000.0001) selectCoriMap = /* Coriolis Map options (0,1,2,3)*/
(PID.TID 0000.0001)                       2
(PID.TID 0000.0001)     0= f-Plane ; 1= Beta-Plane ; 2= Spherical ; 3= read from file
(PID.TID 0000.0001)     ;
(PID.TID 0000.0001) use3dCoriolis = /* 3-D Coriolis on/off flag */
(PID.TID 0000.0001)                   F
(PID.TID 0000.0001)     ;
(PID.TID 0000.0001) useCoriolis =  /* Coriolis on/off flag */
(PID.TID 0000.0001)                   T
(PID.TID 0000.0001)     ;
(PID.TID 0000.0001) useCDscheme =  /* CD scheme on/off flag */
(PID.TID 0000.0001)                   F
(PID.TID 0000.0001)     ;
(PID.TID 0000.0001) useEnergyConservingCoriolis= /* Flx-Form Coriolis scheme flag */
(PID.TID 0000.0001)                   F
(PID.TID 0000.0001)     ;
(PID.TID 0000.0001) useJamartWetPoints= /* Coriolis WetPoints method flag */
(PID.TID 0000.0001)                   F
(PID.TID 0000.0001)     ;
(PID.TID 0000.0001) useJamartMomAdv= /* V.I Non-linear terms Jamart flag */
(PID.TID 0000.0001)                   F
(PID.TID 0000.0001)     ;
(PID.TID 0000.0001) useAbsVorticity= /* V.I Works with f+zeta in Coriolis */
(PID.TID 0000.0001)                   F
(PID.TID 0000.0001)     ;
(PID.TID 0000.0001) selectVortScheme= /* V.I Scheme selector for Vorticity-Term */
(PID.TID 0000.0001)                       0
(PID.TID 0000.0001)    = 0 : enstrophy (Shallow-Water Eq.) conserving scheme by Sadourny, JAS 75
(PID.TID 0000.0001)    = 1 : same as 0 with modified hFac
(PID.TID 0000.0001)    = 2 : energy conserving scheme (used by Sadourny in JAS 75 paper)
(PID.TID 0000.0001)    = 3 : energy (general) and enstrophy (2D, nonDiv.) conserving scheme
(PID.TID 0000.0001)          from Sadourny (Burridge & Haseler, ECMWF Rep.4, 1977)
(PID.TID 0000.0001)     ;
(PID.TID 0000.0001) upwindVorticity= /* V.I Upwind bias vorticity flag */
(PID.TID 0000.0001)                   F
(PID.TID 0000.0001)     ;
(PID.TID 0000.0001) highOrderVorticity= /* V.I High order vort. advect. flag */
(PID.TID 0000.0001)                   T
(PID.TID 0000.0001)     ;
(PID.TID 0000.0001) upwindShear= /* V.I Upwind vertical Shear advection flag */
(PID.TID 0000.0001)                   F
(PID.TID 0000.0001)     ;
(PID.TID 0000.0001) selectKEscheme= /* V.I Kinetic Energy scheme selector */
(PID.TID 0000.0001)                       0
(PID.TID 0000.0001)     ;
(PID.TID 0000.0001) momForcing =  /* Momentum forcing on/off flag */
(PID.TID 0000.0001)                   T
(PID.TID 0000.0001)     ;
(PID.TID 0000.0001) momTidalForcing = /* Momentum Tidal forcing on/off flag */
(PID.TID 0000.0001)                   T
(PID.TID 0000.0001)     ;
(PID.TID 0000.0001) momPressureForcing =  /* Momentum pressure term on/off flag */
(PID.TID 0000.0001)                   T
(PID.TID 0000.0001)     ;
(PID.TID 0000.0001) implicitIntGravWave= /* Implicit Internal Gravity Wave flag */
(PID.TID 0000.0001)                   F
(PID.TID 0000.0001)     ;
(PID.TID 0000.0001) staggerTimeStep =    /* Stagger time stepping on/off flag */
(PID.TID 0000.0001)                   T
(PID.TID 0000.0001)     ;
(PID.TID 0000.0001) doResetHFactors = /* reset thickness factors @ each time-step */
(PID.TID 0000.0001)                   F
(PID.TID 0000.0001)     ;
(PID.TID 0000.0001) multiDimAdvection =  /* enable/disable Multi-Dim Advection */
(PID.TID 0000.0001)                   T
(PID.TID 0000.0001)     ;
(PID.TID 0000.0001) useMultiDimAdvec =   /* Multi-Dim Advection is/is-not used */
(PID.TID 0000.0001)                   T
(PID.TID 0000.0001)     ;
(PID.TID 0000.0001) implicitDiffusion = /* Implicit Diffusion on/off flag */
(PID.TID 0000.0001)                   T
(PID.TID 0000.0001)     ;
(PID.TID 0000.0001) tempStepping =  /* Temperature equation on/off flag */
(PID.TID 0000.0001)                   T
(PID.TID 0000.0001)     ;
(PID.TID 0000.0001) tempAdvection = /* Temperature advection on/off flag */
(PID.TID 0000.0001)                   T
(PID.TID 0000.0001)     ;
(PID.TID 0000.0001) tempImplVertAdv = /* Temp. implicit vert. advection on/off */
(PID.TID 0000.0001)                   F
(PID.TID 0000.0001)     ;
(PID.TID 0000.0001) tempForcing  =  /* Temperature forcing on/off flag */
(PID.TID 0000.0001)                   T
(PID.TID 0000.0001)     ;
(PID.TID 0000.0001) doThetaClimRelax = /* apply SST relaxation on/off flag */
(PID.TID 0000.0001)                   F
(PID.TID 0000.0001)     ;
(PID.TID 0000.0001) tempIsActiveTr = /* Temp. is a dynamically Active Tracer */
(PID.TID 0000.0001)                   T
(PID.TID 0000.0001)     ;
(PID.TID 0000.0001) saltStepping =  /* Salinity equation on/off flag */
(PID.TID 0000.0001)                   T
(PID.TID 0000.0001)     ;
(PID.TID 0000.0001) saltAdvection = /* Salinity advection on/off flag */
(PID.TID 0000.0001)                   T
(PID.TID 0000.0001)     ;
(PID.TID 0000.0001) saltImplVertAdv = /* Sali. implicit vert. advection on/off */
(PID.TID 0000.0001)                   F
(PID.TID 0000.0001)     ;
(PID.TID 0000.0001) saltForcing  =  /* Salinity forcing on/off flag */
(PID.TID 0000.0001)                   T
(PID.TID 0000.0001)     ;
(PID.TID 0000.0001) doSaltClimRelax = /* apply SSS relaxation on/off flag */
(PID.TID 0000.0001)                   F
(PID.TID 0000.0001)     ;
(PID.TID 0000.0001) saltIsActiveTr = /* Salt  is a dynamically Active Tracer */
(PID.TID 0000.0001)                   T
(PID.TID 0000.0001)     ;
(PID.TID 0000.0001)  readBinaryPrec = /* Precision used for reading binary files */
(PID.TID 0000.0001)                      32
(PID.TID 0000.0001)     ;
(PID.TID 0000.0001) writeBinaryPrec = /* Precision used for writing binary files */
(PID.TID 0000.0001)                      32
(PID.TID 0000.0001)     ;
(PID.TID 0000.0001)  rwSuffixType =   /* select format of mds file suffix */
(PID.TID 0000.0001)                       0
(PID.TID 0000.0001)    = 0 : myIter (I10.10) ;   = 1 : 100*myTime (100th sec) ;
(PID.TID 0000.0001)    = 2 : myTime (seconds);   = 3 : myTime/360 (10th of hr);
(PID.TID 0000.0001)    = 4 : myTime/3600 (hours)
(PID.TID 0000.0001)     ;
(PID.TID 0000.0001)  globalFiles = /* write "global" (=not per tile) files */
(PID.TID 0000.0001)                   T
(PID.TID 0000.0001)     ;
(PID.TID 0000.0001)  useSingleCpuIO = /* only master MPI process does I/O */
(PID.TID 0000.0001)                   T
(PID.TID 0000.0001)     ;
(PID.TID 0000.0001)  useSingleCpuInput = /* only master process reads input */
(PID.TID 0000.0001)                   T
(PID.TID 0000.0001)     ;
(PID.TID 0000.0001) /* debLev[*]  : level of debug & auxiliary message printing */
(PID.TID 0000.0001) debLevZero =  0 ; /* level of disabled aux. msg printing */
(PID.TID 0000.0001)    debLevA =  1 ; /* level of minimum  aux. msg printing */
(PID.TID 0000.0001)    debLevB =  2 ; /* level of low aux. print (report read-file opening)*/
(PID.TID 0000.0001)    debLevC =  3 ; /* level of moderate debug prt (most pkgs debug msg) */
(PID.TID 0000.0001)    debLevD =  4 ; /* level of enhanced debug prt (add DEBUG_STATS prt) */
(PID.TID 0000.0001)    debLevE =  5 ; /* level of extensive debug printing */
(PID.TID 0000.0001) debugLevel =  /* select debug printing level */
(PID.TID 0000.0001)                       2
(PID.TID 0000.0001)     ;
(PID.TID 0000.0001)  plotLevel =  /* select PLOT_FIELD printing level */
(PID.TID 0000.0001)                       2
(PID.TID 0000.0001)     ;
(PID.TID 0000.0001) //
(PID.TID 0000.0001) // Elliptic solver(s) paramters ( PARM02 in namelist )
(PID.TID 0000.0001) //
(PID.TID 0000.0001) cg2dMaxIters =   /* Upper limit on 2d con. grad iterations  */
(PID.TID 0000.0001)                    1000
(PID.TID 0000.0001)     ;
(PID.TID 0000.0001) cg2dChkResFreq =   /* 2d con. grad convergence test frequency */
(PID.TID 0000.0001)                       1
(PID.TID 0000.0001)     ;
(PID.TID 0000.0001) cg2dUseMinResSol= /* use cg2d last-iter(=0) / min-resid.(=1) solution */
(PID.TID 0000.0001)                       0
(PID.TID 0000.0001)     ;
(PID.TID 0000.0001) cg2dTargetResidual =   /* 2d con. grad target residual  */
(PID.TID 0000.0001)                 1.000000000000000E-07
(PID.TID 0000.0001)     ;
(PID.TID 0000.0001) cg2dTargetResWunit =   /* CG2d target residual [W units] */
(PID.TID 0000.0001)                 1.000000000000000E-18
(PID.TID 0000.0001)     ;
(PID.TID 0000.0001) cg2dPreCondFreq =   /* Freq. for updating cg2d preconditioner */
(PID.TID 0000.0001)                       1
(PID.TID 0000.0001)     ;
(PID.TID 0000.0001) useSRCGSolver =  /* use single reduction CG solver(s) */
(PID.TID 0000.0001)                   F
(PID.TID 0000.0001)     ;
(PID.TID 0000.0001) printResidualFreq = /* Freq. for printing CG residual */
(PID.TID 0000.0001)                       0
(PID.TID 0000.0001)     ;
(PID.TID 0000.0001) //
(PID.TID 0000.0001) // Time stepping paramters ( PARM03 in namelist )
(PID.TID 0000.0001) //
(PID.TID 0000.0001) deltaTMom =   /* Momentum equation timestep ( s ) */
(PID.TID 0000.0001)                 2.400000000000000E+02
(PID.TID 0000.0001)     ;
(PID.TID 0000.0001) deltaTFreeSurf = /* FreeSurface equation timestep ( s ) */
(PID.TID 0000.0001)                 2.400000000000000E+02
(PID.TID 0000.0001)     ;
(PID.TID 0000.0001) dTtracerLev =  /* Tracer equation timestep ( s ) */
(PID.TID 0000.0001)   100 @  2.400000000000000E+02              /* K =  1:100 */
(PID.TID 0000.0001)     ;
(PID.TID 0000.0001) deltaTClock  =   /* Model clock timestep ( s ) */
(PID.TID 0000.0001)                 2.400000000000000E+02
(PID.TID 0000.0001)     ;
(PID.TID 0000.0001) cAdjFreq =   /* Convective adjustment interval ( s ) */
(PID.TID 0000.0001)                 0.000000000000000E+00
(PID.TID 0000.0001)     ;
(PID.TID 0000.0001) momForcingOutAB = /* =1: take Momentum Forcing out of Adams-Bash. stepping */
(PID.TID 0000.0001)                       1
(PID.TID 0000.0001)     ;
(PID.TID 0000.0001) tracForcingOutAB = /* =1: take T,S,pTr Forcing out of Adams-Bash. stepping */
(PID.TID 0000.0001)                       1
(PID.TID 0000.0001)     ;
(PID.TID 0000.0001) momDissip_In_AB = /* put Dissipation Tendency in Adams-Bash. stepping */
(PID.TID 0000.0001)                   F
(PID.TID 0000.0001)     ;
(PID.TID 0000.0001) doAB_onGtGs = /* apply AB on Tendencies (rather than on T,S)*/
(PID.TID 0000.0001)                   T
(PID.TID 0000.0001)     ;
(PID.TID 0000.0001) abEps =   /* Adams-Bashforth-2 stabilizing weight */
(PID.TID 0000.0001)                 1.000000000000000E-01
(PID.TID 0000.0001)     ;
(PID.TID 0000.0001) applyExchUV_early = /* Apply EXCH to U,V earlier in time-step */
(PID.TID 0000.0001)                   F
(PID.TID 0000.0001)     ;
(PID.TID 0000.0001) pickupStrictlyMatch= /* stop if pickup do not strictly match */
(PID.TID 0000.0001)                   F
(PID.TID 0000.0001)     ;
(PID.TID 0000.0001) nIter0   =   /* Run starting timestep number */
(PID.TID 0000.0001)                       0
(PID.TID 0000.0001)     ;
(PID.TID 0000.0001) nTimeSteps = /* Number of timesteps */
(PID.TID 0000.0001)                      15
(PID.TID 0000.0001)     ;
(PID.TID 0000.0001) nEndIter =   /* Run ending timestep number */
(PID.TID 0000.0001)                      15
(PID.TID 0000.0001)     ;
(PID.TID 0000.0001) baseTime =   /* Model base time ( s ) */
(PID.TID 0000.0001)                 0.000000000000000E+00
(PID.TID 0000.0001)     ;
(PID.TID 0000.0001) startTime =  /* Run start time ( s ) */
(PID.TID 0000.0001)                 0.000000000000000E+00
(PID.TID 0000.0001)     ;
(PID.TID 0000.0001) endTime  =   /* Integration ending time ( s ) */
(PID.TID 0000.0001)                 3.600000000000000E+03
(PID.TID 0000.0001)     ;
(PID.TID 0000.0001) pChkPtFreq = /* Permanent restart/pickup file interval ( s ) */
(PID.TID 0000.0001)                 8.640000000000000E+05
(PID.TID 0000.0001)     ;
(PID.TID 0000.0001) chkPtFreq  = /* Rolling restart/pickup file interval ( s ) */
(PID.TID 0000.0001)                 0.000000000000000E+00
(PID.TID 0000.0001)     ;
(PID.TID 0000.0001) pickup_write_mdsio =   /* Model IO flag. */
(PID.TID 0000.0001)                   T
(PID.TID 0000.0001)     ;
(PID.TID 0000.0001) pickup_read_mdsio =   /* Model IO flag. */
(PID.TID 0000.0001)                   T
(PID.TID 0000.0001)     ;
(PID.TID 0000.0001) writePickupAtEnd =   /* Model IO flag. */
(PID.TID 0000.0001)                   T
(PID.TID 0000.0001)     ;
(PID.TID 0000.0001) dumpFreq =   /* Model state write out interval ( s ). */
(PID.TID 0000.0001)                 0.000000000000000E+00
(PID.TID 0000.0001)     ;
(PID.TID 0000.0001) dumpInitAndLast= /* write out Initial & Last iter. model state */
(PID.TID 0000.0001)                   F
(PID.TID 0000.0001)     ;
(PID.TID 0000.0001) snapshot_mdsio =   /* Model IO flag. */
(PID.TID 0000.0001)                   T
(PID.TID 0000.0001)     ;
(PID.TID 0000.0001) monitorFreq =   /* Monitor output interval ( s ). */
(PID.TID 0000.0001)                 2.400000000000000E+02
(PID.TID 0000.0001)     ;
(PID.TID 0000.0001) monitorSelect = /* select group of variables to monitor */
(PID.TID 0000.0001)                       3
(PID.TID 0000.0001)     ;
(PID.TID 0000.0001) monitor_stdio =   /* Model IO flag. */
(PID.TID 0000.0001)                   T
(PID.TID 0000.0001)     ;
(PID.TID 0000.0001) externForcingPeriod =   /* forcing period (s) */
(PID.TID 0000.0001)                 0.000000000000000E+00
(PID.TID 0000.0001)     ;
(PID.TID 0000.0001) externForcingCycle =   /* period of the cyle (s). */
(PID.TID 0000.0001)                 0.000000000000000E+00
(PID.TID 0000.0001)     ;
(PID.TID 0000.0001) tauThetaClimRelax =   /* relaxation time scale (s) */
(PID.TID 0000.0001)                 0.000000000000000E+00
(PID.TID 0000.0001)     ;
(PID.TID 0000.0001) tauSaltClimRelax =   /* relaxation time scale (s) */
(PID.TID 0000.0001)                 0.000000000000000E+00
(PID.TID 0000.0001)     ;
(PID.TID 0000.0001) latBandClimRelax =   /* max. Lat. where relaxation */
(PID.TID 0000.0001)                 1.800000000000000E+02
(PID.TID 0000.0001)     ;
(PID.TID 0000.0001) //
(PID.TID 0000.0001) // Gridding paramters ( PARM04 in namelist )
(PID.TID 0000.0001) //
(PID.TID 0000.0001) usingCartesianGrid = /* Cartesian coordinates flag ( True/False ) */
(PID.TID 0000.0001)                   F
(PID.TID 0000.0001)     ;
(PID.TID 0000.0001) usingCylindricalGrid = /* Cylindrical coordinates flag ( True/False ) */
(PID.TID 0000.0001)                   F
(PID.TID 0000.0001)     ;
(PID.TID 0000.0001) usingSphericalPolarGrid = /* Spherical coordinates flag ( True/False ) */
(PID.TID 0000.0001)                   T
(PID.TID 0000.0001)     ;
(PID.TID 0000.0001) usingCurvilinearGrid = /* Curvilinear coordinates flag ( True/False ) */
(PID.TID 0000.0001)                   F
(PID.TID 0000.0001)     ;
(PID.TID 0000.0001) useMin4hFacEdges = /* set hFacW,S as minimum of adjacent hFacC factor */
(PID.TID 0000.0001)                   F
(PID.TID 0000.0001)     ;
(PID.TID 0000.0001) interViscAr_pCell = /* account for partial-cell in interior vert. viscosity */
(PID.TID 0000.0001)                   F
(PID.TID 0000.0001)     ;
(PID.TID 0000.0001) interDiffKr_pCell = /* account for partial-cell in interior vert. diffusion */
(PID.TID 0000.0001)                   F
(PID.TID 0000.0001)     ;
(PID.TID 0000.0001) pCellMix_select = /* option to enhance mixing near surface & bottom */
(PID.TID 0000.0001)                       0
(PID.TID 0000.0001)     ;
(PID.TID 0000.0001) selectSigmaCoord = /* Hybrid-Sigma Vert. Coordinate option */
(PID.TID 0000.0001)                       0
(PID.TID 0000.0001)     ;
(PID.TID 0000.0001) rSigmaBnd = /* r/sigma transition ( units of r ==  m ) */
(PID.TID 0000.0001)                 1.234567000000000E+05
(PID.TID 0000.0001)     ;
(PID.TID 0000.0001) rkSign =   /* index orientation relative to vertical coordinate */
(PID.TID 0000.0001)                -1.000000000000000E+00
(PID.TID 0000.0001)     ;
(PID.TID 0000.0001) gravitySign = /* gravity orientation relative to vertical coordinate */
(PID.TID 0000.0001)                -1.000000000000000E+00
(PID.TID 0000.0001)     ;
(PID.TID 0000.0001) seaLev_Z =  /* reference height of sea-level [m] */
(PID.TID 0000.0001)                 0.000000000000000E+00
(PID.TID 0000.0001)     ;
(PID.TID 0000.0001) top_Pres =  /* reference pressure at the top [Pa] */
(PID.TID 0000.0001)                 0.000000000000000E+00
(PID.TID 0000.0001)     ;
(PID.TID 0000.0001) mass2rUnit = /* convert mass per unit area [kg/m2] to r-units [m] */
(PID.TID 0000.0001)                 9.718172983479105E-04
(PID.TID 0000.0001)     ;
(PID.TID 0000.0001) rUnit2mass = /* convert r-units [m] to mass per unit area [kg/m2] */
(PID.TID 0000.0001)                 1.029000000000000E+03
(PID.TID 0000.0001)     ;
(PID.TID 0000.0001) drC =   /* C spacing ( units of r ) */
(PID.TID 0000.0001)                 2.500000000000000E+00,      /* K =  1 */
(PID.TID 0000.0001)    14 @  5.000000000000000E+00,             /* K =  2: 15 */
(PID.TID 0000.0001)                 5.005000000000000E+00,      /* K = 16 */
(PID.TID 0000.0001)                 5.010000000000000E+00,      /* K = 17 */
(PID.TID 0000.0001)                 5.015000000000000E+00,      /* K = 18 */
(PID.TID 0000.0001)                 5.029999999999999E+00,      /* K = 19 */
(PID.TID 0000.0001)                 5.055000000000000E+00,      /* K = 20 */
(PID.TID 0000.0001)                 5.095000000000001E+00,      /* K = 21 */
(PID.TID 0000.0001)                 5.160000000000000E+00,      /* K = 22 */
(PID.TID 0000.0001)                 5.255000000000000E+00,      /* K = 23 */
(PID.TID 0000.0001)                 5.400000000000000E+00,      /* K = 24 */
(PID.TID 0000.0001)                 5.605000000000000E+00,      /* K = 25 */
(PID.TID 0000.0001)                 5.880000000000000E+00,      /* K = 26 */
(PID.TID 0000.0001)                 6.245000000000000E+00,      /* K = 27 */
(PID.TID 0000.0001)                 6.710000000000000E+00,      /* K = 28 */
(PID.TID 0000.0001)                 7.295000000000000E+00,      /* K = 29 */
(PID.TID 0000.0001)                 8.020000000000000E+00,      /* K = 30 */
(PID.TID 0000.0001)                 8.890000000000001E+00,      /* K = 31 */
(PID.TID 0000.0001)                 9.910000000000000E+00,      /* K = 32 */
(PID.TID 0000.0001)                 1.109000000000000E+01,      /* K = 33 */
(PID.TID 0000.0001)                 1.242500000000000E+01,      /* K = 34 */
(PID.TID 0000.0001)                 1.391500000000000E+01,      /* K = 35 */
(PID.TID 0000.0001)                 1.555000000000000E+01,      /* K = 36 */
(PID.TID 0000.0001)                 1.732000000000000E+01,      /* K = 37 */
(PID.TID 0000.0001)                 1.921000000000000E+01,      /* K = 38 */
(PID.TID 0000.0001)                 2.119500000000000E+01,      /* K = 39 */
(PID.TID 0000.0001)                 2.325000000000000E+01,      /* K = 40 */
(PID.TID 0000.0001)                 2.536000000000000E+01,      /* K = 41 */
(PID.TID 0000.0001)                 2.750000000000000E+01,      /* K = 42 */
(PID.TID 0000.0001)                 2.964000000000000E+01,      /* K = 43 */
(PID.TID 0000.0001)                 3.175000000000000E+01,      /* K = 44 */
(PID.TID 0000.0001)                 3.380500000000000E+01,      /* K = 45 */
(PID.TID 0000.0001)                 3.579000000000000E+01,      /* K = 46 */
(PID.TID 0000.0001)                 3.768000000000000E+01,      /* K = 47 */
(PID.TID 0000.0001)                 3.945000000000000E+01,      /* K = 48 */
(PID.TID 0000.0001)                 4.108499999999999E+01,      /* K = 49 */
(PID.TID 0000.0001)                 4.257500000000000E+01,      /* K = 50 */
(PID.TID 0000.0001)                 4.391000000000000E+01,      /* K = 51 */
(PID.TID 0000.0001)                 4.509000000000000E+01,      /* K = 52 */
(PID.TID 0000.0001)                 4.611000000000000E+01,      /* K = 53 */
(PID.TID 0000.0001)                 4.698000000000000E+01,      /* K = 54 */
(PID.TID 0000.0001)                 4.770500000000000E+01,      /* K = 55 */
(PID.TID 0000.0001)                 4.829000000000000E+01,      /* K = 56 */
(PID.TID 0000.0001)                 4.875500000000000E+01,      /* K = 57 */
(PID.TID 0000.0001)                 4.912500000000000E+01,      /* K = 58 */
(PID.TID 0000.0001)                 4.941000000000000E+01,      /* K = 59 */
(PID.TID 0000.0001)                 4.962500000000000E+01,      /* K = 60 */
(PID.TID 0000.0001)                 4.981000000000000E+01,      /* K = 61 */
(PID.TID 0000.0001)                 5.000500000000000E+01,      /* K = 62 */
(PID.TID 0000.0001)                 5.026000000000000E+01,      /* K = 63 */
(PID.TID 0000.0001)                 5.066500000000000E+01,      /* K = 64 */
(PID.TID 0000.0001)                 5.130500000000000E+01,      /* K = 65 */
(PID.TID 0000.0001)                 5.228000000000000E+01,      /* K = 66 */
(PID.TID 0000.0001)                 5.370500000000000E+01,      /* K = 67 */
(PID.TID 0000.0001)                 5.566500000000000E+01,      /* K = 68 */
(PID.TID 0000.0001)                 5.823000000000000E+01,      /* K = 69 */
(PID.TID 0000.0001)                 6.141500000000000E+01,      /* K = 70 */
(PID.TID 0000.0001)                 6.521000000000001E+01,      /* K = 71 */
(PID.TID 0000.0001)                 6.954500000000000E+01,      /* K = 72 */
(PID.TID 0000.0001)                 7.433000000000000E+01,      /* K = 73 */
(PID.TID 0000.0001)                 7.947000000000000E+01,      /* K = 74 */
(PID.TID 0000.0001)                 8.486000000000000E+01,      /* K = 75 */
(PID.TID 0000.0001)                 9.041499999999999E+01,      /* K = 76 */
(PID.TID 0000.0001)                 9.606500000000000E+01,      /* K = 77 */
(PID.TID 0000.0001)                 1.017750000000000E+02,      /* K = 78 */
(PID.TID 0000.0001)                 1.075100000000000E+02,      /* K = 79 */
(PID.TID 0000.0001)                 1.132500000000000E+02,      /* K = 80 */
(PID.TID 0000.0001)                 1.189950000000000E+02,      /* K = 81 */
(PID.TID 0000.0001)                 1.247500000000000E+02,      /* K = 82 */
(PID.TID 0000.0001)                 1.305050000000000E+02,      /* K = 83 */
(PID.TID 0000.0001)                 1.362500000000000E+02,      /* K = 84 */
(PID.TID 0000.0001)                 1.419950000000000E+02,      /* K = 85 */
(PID.TID 0000.0001)                 1.477500000000000E+02,      /* K = 86 */
(PID.TID 0000.0001)                 1.535050000000000E+02,      /* K = 87 */
(PID.TID 0000.0001)                 1.592500000000000E+02,      /* K = 88 */
(PID.TID 0000.0001)                 1.649950000000000E+02,      /* K = 89 */
(PID.TID 0000.0001)                 1.707500000000000E+02,      /* K = 90 */
(PID.TID 0000.0001)                 1.765050000000000E+02,      /* K = 91 */
(PID.TID 0000.0001)                 1.822500000000000E+02,      /* K = 92 */
(PID.TID 0000.0001)                 1.879950000000000E+02,      /* K = 93 */
(PID.TID 0000.0001)                 1.937500000000000E+02,      /* K = 94 */
(PID.TID 0000.0001)                 1.995050000000000E+02,      /* K = 95 */
(PID.TID 0000.0001)                 2.052500000000000E+02,      /* K = 96 */
(PID.TID 0000.0001)                 2.109950000000000E+02,      /* K = 97 */
(PID.TID 0000.0001)                 2.167500000000000E+02,      /* K = 98 */
(PID.TID 0000.0001)                 2.225050000000000E+02,      /* K = 99 */
(PID.TID 0000.0001)                 2.282500000000000E+02,      /* K =100 */
(PID.TID 0000.0001)                 1.155600000000000E+02       /* K =101 */
(PID.TID 0000.0001)     ;
(PID.TID 0000.0001) drF =   /* W spacing ( units of r ) */
(PID.TID 0000.0001)    15 @  5.000000000000000E+00,             /* K =  1: 15 */
(PID.TID 0000.0001)     2 @  5.010000000000000E+00,             /* K = 16: 17 */
(PID.TID 0000.0001)                 5.020000000000000E+00,      /* K = 18 */
(PID.TID 0000.0001)                 5.040000000000000E+00,      /* K = 19 */
(PID.TID 0000.0001)                 5.070000000000000E+00,      /* K = 20 */
(PID.TID 0000.0001)                 5.120000000000000E+00,      /* K = 21 */
(PID.TID 0000.0001)                 5.200000000000000E+00,      /* K = 22 */
(PID.TID 0000.0001)                 5.310000000000000E+00,      /* K = 23 */
(PID.TID 0000.0001)                 5.490000000000000E+00,      /* K = 24 */
(PID.TID 0000.0001)                 5.720000000000000E+00,      /* K = 25 */
(PID.TID 0000.0001)                 6.040000000000000E+00,      /* K = 26 */
(PID.TID 0000.0001)                 6.450000000000000E+00,      /* K = 27 */
(PID.TID 0000.0001)                 6.970000000000000E+00,      /* K = 28 */
(PID.TID 0000.0001)                 7.620000000000000E+00,      /* K = 29 */
(PID.TID 0000.0001)                 8.420000000000000E+00,      /* K = 30 */
(PID.TID 0000.0001)                 9.359999999999999E+00,      /* K = 31 */
(PID.TID 0000.0001)                 1.046000000000000E+01,      /* K = 32 */
(PID.TID 0000.0001)                 1.172000000000000E+01,      /* K = 33 */
(PID.TID 0000.0001)                 1.313000000000000E+01,      /* K = 34 */
(PID.TID 0000.0001)                 1.470000000000000E+01,      /* K = 35 */
(PID.TID 0000.0001)                 1.640000000000000E+01,      /* K = 36 */
(PID.TID 0000.0001)                 1.824000000000000E+01,      /* K = 37 */
(PID.TID 0000.0001)                 2.018000000000000E+01,      /* K = 38 */
(PID.TID 0000.0001)                 2.221000000000000E+01,      /* K = 39 */
(PID.TID 0000.0001)                 2.429000000000000E+01,      /* K = 40 */
(PID.TID 0000.0001)                 2.643000000000000E+01,      /* K = 41 */
(PID.TID 0000.0001)                 2.857000000000000E+01,      /* K = 42 */
(PID.TID 0000.0001)                 3.071000000000000E+01,      /* K = 43 */
(PID.TID 0000.0001)                 3.279000000000000E+01,      /* K = 44 */
(PID.TID 0000.0001)                 3.482000000000000E+01,      /* K = 45 */
(PID.TID 0000.0001)                 3.676000000000000E+01,      /* K = 46 */
(PID.TID 0000.0001)                 3.860000000000000E+01,      /* K = 47 */
(PID.TID 0000.0001)                 4.030000000000000E+01,      /* K = 48 */
(PID.TID 0000.0001)                 4.187000000000000E+01,      /* K = 49 */
(PID.TID 0000.0001)                 4.328000000000000E+01,      /* K = 50 */
(PID.TID 0000.0001)                 4.454000000000000E+01,      /* K = 51 */
(PID.TID 0000.0001)                 4.564000000000000E+01,      /* K = 52 */
(PID.TID 0000.0001)                 4.658000000000000E+01,      /* K = 53 */
(PID.TID 0000.0001)                 4.738000000000000E+01,      /* K = 54 */
(PID.TID 0000.0001)                 4.803000000000000E+01,      /* K = 55 */
(PID.TID 0000.0001)                 4.855000000000000E+01,      /* K = 56 */
(PID.TID 0000.0001)                 4.896000000000000E+01,      /* K = 57 */
(PID.TID 0000.0001)                 4.929000000000000E+01,      /* K = 58 */
(PID.TID 0000.0001)                 4.953000000000000E+01,      /* K = 59 */
(PID.TID 0000.0001)                 4.972000000000000E+01,      /* K = 60 */
(PID.TID 0000.0001)                 4.990000000000000E+01,      /* K = 61 */
(PID.TID 0000.0001)                 5.011000000000000E+01,      /* K = 62 */
(PID.TID 0000.0001)                 5.041000000000000E+01,      /* K = 63 */
(PID.TID 0000.0001)                 5.092000000000000E+01,      /* K = 64 */
(PID.TID 0000.0001)                 5.169000000000000E+01,      /* K = 65 */
(PID.TID 0000.0001)                 5.287000000000000E+01,      /* K = 66 */
(PID.TID 0000.0001)                 5.454000000000000E+01,      /* K = 67 */
(PID.TID 0000.0001)                 5.679000000000000E+01,      /* K = 68 */
(PID.TID 0000.0001)                 5.967000000000000E+01,      /* K = 69 */
(PID.TID 0000.0001)                 6.316000000000000E+01,      /* K = 70 */
(PID.TID 0000.0001)                 6.726000000000001E+01,      /* K = 71 */
(PID.TID 0000.0001)                 7.183000000000000E+01,      /* K = 72 */
(PID.TID 0000.0001)                 7.683000000000000E+01,      /* K = 73 */
(PID.TID 0000.0001)                 8.211000000000000E+01,      /* K = 74 */
(PID.TID 0000.0001)                 8.761000000000000E+01,      /* K = 75 */
(PID.TID 0000.0001)                 9.322000000000000E+01,      /* K = 76 */
(PID.TID 0000.0001)                 9.891000000000000E+01,      /* K = 77 */
(PID.TID 0000.0001)                 1.046400000000000E+02,      /* K = 78 */
(PID.TID 0000.0001)                 1.103800000000000E+02,      /* K = 79 */
(PID.TID 0000.0001)                 1.161200000000000E+02,      /* K = 80 */
(PID.TID 0000.0001)                 1.218700000000000E+02,      /* K = 81 */
(PID.TID 0000.0001)                 1.276300000000000E+02,      /* K = 82 */
(PID.TID 0000.0001)                 1.333800000000000E+02,      /* K = 83 */
(PID.TID 0000.0001)                 1.391200000000000E+02,      /* K = 84 */
(PID.TID 0000.0001)                 1.448700000000000E+02,      /* K = 85 */
(PID.TID 0000.0001)                 1.506300000000000E+02,      /* K = 86 */
(PID.TID 0000.0001)                 1.563800000000000E+02,      /* K = 87 */
(PID.TID 0000.0001)                 1.621200000000000E+02,      /* K = 88 */
(PID.TID 0000.0001)                 1.678700000000000E+02,      /* K = 89 */
(PID.TID 0000.0001)                 1.736300000000000E+02,      /* K = 90 */
(PID.TID 0000.0001)                 1.793800000000000E+02,      /* K = 91 */
(PID.TID 0000.0001)                 1.851200000000000E+02,      /* K = 92 */
(PID.TID 0000.0001)                 1.908700000000000E+02,      /* K = 93 */
(PID.TID 0000.0001)                 1.966300000000000E+02,      /* K = 94 */
(PID.TID 0000.0001)                 2.023800000000000E+02,      /* K = 95 */
(PID.TID 0000.0001)                 2.081200000000000E+02,      /* K = 96 */
(PID.TID 0000.0001)                 2.138700000000000E+02,      /* K = 97 */
(PID.TID 0000.0001)                 2.196300000000000E+02,      /* K = 98 */
(PID.TID 0000.0001)                 2.253800000000000E+02,      /* K = 99 */
(PID.TID 0000.0001)                 2.311200000000000E+02       /* K =100 */
(PID.TID 0000.0001)     ;
(PID.TID 0000.0001) delX = /* U spacing ( m - cartesian, degrees - spherical ) */
(PID.TID 0000.0001)  1815 @  4.166666666666700E-02              /* I =   1:1815 */
(PID.TID 0000.0001)     ;
(PID.TID 0000.0001) delY = /* V spacing ( m - cartesian, degrees - spherical ) */
(PID.TID 0000.0001)                 3.417015075683594E-02,      /* J =  1 */
(PID.TID 0000.0001)                 3.416061401367188E-02,      /* J =  2 */
(PID.TID 0000.0001)                 3.415107727050781E-02,      /* J =  3 */
(PID.TID 0000.0001)      . . .
(PID.TID 0000.0001)                 3.279495239257812E-02,      /* J =131 */
(PID.TID 0000.0001)                 3.278350830078125E-02,      /* J =132 */
(PID.TID 0000.0001)                 3.277397155761719E-02,      /* J =133 */
(PID.TID 0000.0001)                 3.276252746582031E-02,      /* J =134 */
(PID.TID 0000.0001)                 3.275299072265625E-02,      /* J =135 */
(PID.TID 0000.0001)                 3.273963928222656E-02,      /* J =136 */
(PID.TID 0000.0001)      . . .
(PID.TID 0000.0001)                 3.129959106445312E-02,      /* J =264 */
(PID.TID 0000.0001)                 3.128814697265625E-02,      /* J =265 */
(PID.TID 0000.0001)                 3.127288818359375E-02,      /* J =266 */
(PID.TID 0000.0001)                 3.126525878906250E-02,      /* J =267 */
(PID.TID 0000.0001)                 3.125000000000000E-02,      /* J =268 */
(PID.TID 0000.0001)                 3.124237060546875E-02,      /* J =269 */
(PID.TID 0000.0001)      . . .
(PID.TID 0000.0001)                 2.974700927734375E-02,      /* J =397 */
(PID.TID 0000.0001)                 2.973175048828125E-02,      /* J =398 */
(PID.TID 0000.0001)                 2.971649169921875E-02,      /* J =399 */
(PID.TID 0000.0001)                 2.970886230468750E-02,      /* J =400 */
(PID.TID 0000.0001)                 2.969741821289062E-02,      /* J =401 */
(PID.TID 0000.0001)                 2.968597412109375E-02,      /* J =402 */
(PID.TID 0000.0001)      . . .
(PID.TID 0000.0001)                 2.816009521484375E-02,      /* J =530 */
(PID.TID 0000.0001)                 2.815246582031250E-02,      /* J =531 */
(PID.TID 0000.0001)                 2.813720703125000E-02       /* J =532 */
(PID.TID 0000.0001)     ;
(PID.TID 0000.0001) xgOrigin = /* X-axis origin of West  edge (cartesian: m, lat-lon: deg) */
(PID.TID 0000.0001)                -8.158333587646484E+01
(PID.TID 0000.0001)     ;
(PID.TID 0000.0001) ygOrigin = /* Y-axis origin of South edge (cartesian: m, lat-lon: deg) */
(PID.TID 0000.0001)                 2.685529327392578E+01
(PID.TID 0000.0001)     ;
(PID.TID 0000.0001) rSphere =  /* Radius ( ignored - cartesian, m - spherical ) */
(PID.TID 0000.0001)                 6.370000000000000E+06
(PID.TID 0000.0001)     ;
(PID.TID 0000.0001) deepAtmosphere = /* Deep/Shallow Atmosphere flag (True/False) */
(PID.TID 0000.0001)                   F
(PID.TID 0000.0001)     ;
(PID.TID 0000.0001) xC =  /* xC(:,1,:,1) : P-point X coord ( deg. or m if cartesian) */
(PID.TID 0000.0001)                -8.156250254313150E+01,      /* I =  1 */
(PID.TID 0000.0001)                -8.152083587646484E+01,      /* I =  2 */
(PID.TID 0000.0001)                -8.147916920979816E+01,      /* I =  3 */
(PID.TID 0000.0001)      . . .
(PID.TID 0000.0001)                -7.822916920979779E+01,      /* I = 81 */
(PID.TID 0000.0001)                -7.818750254313113E+01,      /* I = 82 */
(PID.TID 0000.0001)                -7.814583587646445E+01,      /* I = 83 */
(PID.TID 0000.0001)                -7.810416920979779E+01,      /* I = 84 */
(PID.TID 0000.0001)                -7.806250254313110E+01,      /* I = 85 */
(PID.TID 0000.0001)                -7.802083587646445E+01,      /* I = 86 */
(PID.TID 0000.0001)      . . .
(PID.TID 0000.0001)                -7.481250254313073E+01,      /* I =163 */
(PID.TID 0000.0001)                -7.477083587646408E+01,      /* I =164 */
(PID.TID 0000.0001)                -7.472916920979739E+01,      /* I =165 */
(PID.TID 0000.0001)                -7.468750254313073E+01,      /* I =166 */
(PID.TID 0000.0001)                -7.464583587646405E+01,      /* I =167 */
(PID.TID 0000.0001)                -7.460416920979739E+01,      /* I =168 */
(PID.TID 0000.0001)      . . .
(PID.TID 0000.0001)                -7.139583587646368E+01,      /* I =245 */
(PID.TID 0000.0001)                -7.135416920979702E+01,      /* I =246 */
(PID.TID 0000.0001)                -7.131250254313034E+01,      /* I =247 */
(PID.TID 0000.0001)                -7.127083587646368E+01,      /* I =248 */
(PID.TID 0000.0001)                -7.122916920979699E+01,      /* I =249 */
(PID.TID 0000.0001)                -7.118750254313034E+01,      /* I =250 */
(PID.TID 0000.0001)      . . .
(PID.TID 0000.0001)                -6.793750254312997E+01,      /* I =328 */
(PID.TID 0000.0001)                -6.789583587646328E+01,      /* I =329 */
(PID.TID 0000.0001)                -6.785416920979662E+01       /* I =330 */
(PID.TID 0000.0001)     ;
(PID.TID 0000.0001) yC =  /* yC(1,:,1,:) : P-point Y coord ( deg. or m if cartesian) */
(PID.TID 0000.0001)                 2.687237834930420E+01,      /* J =  1 */
(PID.TID 0000.0001)                 2.690654373168945E+01,      /* J =  2 */
(PID.TID 0000.0001)                 2.694069957733154E+01,      /* J =  3 */
(PID.TID 0000.0001)                 2.697484493255615E+01,      /* J =  4 */
(PID.TID 0000.0001)                 2.700897979736328E+01,      /* J =  5 */
(PID.TID 0000.0001)                 2.704310512542725E+01,      /* J =  6 */
(PID.TID 0000.0001)                 2.707721996307373E+01,      /* J =  7 */
(PID.TID 0000.0001)                 2.711132431030273E+01,      /* J =  8 */
(PID.TID 0000.0001)                 2.714541912078857E+01,      /* J =  9 */
(PID.TID 0000.0001)                 2.717950344085693E+01,      /* J = 10 */
(PID.TID 0000.0001)                 2.721357727050781E+01,      /* J = 11 */
(PID.TID 0000.0001)                 2.724764060974121E+01,      /* J = 12 */
(PID.TID 0000.0001)                 2.728169441223145E+01,      /* J = 13 */
(PID.TID 0000.0001)                 2.731573772430420E+01,      /* J = 14 */
(PID.TID 0000.0001)                 2.734977054595947E+01,      /* J = 15 */
(PID.TID 0000.0001)                 2.738379383087158E+01,      /* J = 16 */
(PID.TID 0000.0001)                 2.741780662536621E+01,      /* J = 17 */
(PID.TID 0000.0001)                 2.745180892944336E+01,      /* J = 18 */
(PID.TID 0000.0001)                 2.748580074310303E+01,      /* J = 19 */
(PID.TID 0000.0001)                 2.751978206634521E+01,      /* J = 20 */
(PID.TID 0000.0001)                 2.755375289916992E+01,      /* J = 21 */
(PID.TID 0000.0001)                 2.758771419525146E+01,      /* J = 22 */
(PID.TID 0000.0001)                 2.762166500091553E+01,      /* J = 23 */
(PID.TID 0000.0001)                 2.765560531616211E+01,      /* J = 24 */
(PID.TID 0000.0001)                 2.768953609466553E+01,      /* J = 25 */
(PID.TID 0000.0001)                 2.772345638275146E+01,      /* J = 26 */
(PID.TID 0000.0001)                 2.775736522674561E+01,      /* J = 27 */
(PID.TID 0000.0001)                 2.779126453399658E+01       /* J = 28 */
(PID.TID 0000.0001)     ;
(PID.TID 0000.0001) rcoord = /* P-point R coordinate (  units of r ) */
(PID.TID 0000.0001)                -2.500000000000000E+00,      /* K =  1 */
(PID.TID 0000.0001)                -7.500000000000000E+00,      /* K =  2 */
(PID.TID 0000.0001)                -1.250000000000000E+01,      /* K =  3 */
(PID.TID 0000.0001)                -1.750000000000000E+01,      /* K =  4 */
(PID.TID 0000.0001)                -2.250000000000000E+01,      /* K =  5 */
(PID.TID 0000.0001)                -2.750000000000000E+01,      /* K =  6 */
(PID.TID 0000.0001)                -3.250000000000000E+01,      /* K =  7 */
(PID.TID 0000.0001)                -3.750000000000000E+01,      /* K =  8 */
(PID.TID 0000.0001)                -4.250000000000000E+01,      /* K =  9 */
(PID.TID 0000.0001)                -4.750000000000000E+01,      /* K = 10 */
(PID.TID 0000.0001)                -5.250000000000000E+01,      /* K = 11 */
(PID.TID 0000.0001)                -5.750000000000000E+01,      /* K = 12 */
(PID.TID 0000.0001)                -6.250000000000000E+01,      /* K = 13 */
(PID.TID 0000.0001)                -6.750000000000000E+01,      /* K = 14 */
(PID.TID 0000.0001)                -7.250000000000000E+01,      /* K = 15 */
(PID.TID 0000.0001)                -7.750500000000000E+01,      /* K = 16 */
(PID.TID 0000.0001)                -8.251500000000000E+01,      /* K = 17 */
(PID.TID 0000.0001)                -8.753000000000000E+01,      /* K = 18 */
(PID.TID 0000.0001)                -9.256000000000000E+01,      /* K = 19 */
(PID.TID 0000.0001)                -9.761500000000001E+01,      /* K = 20 */
(PID.TID 0000.0001)                -1.027100000000000E+02,      /* K = 21 */
(PID.TID 0000.0001)                -1.078700000000000E+02,      /* K = 22 */
(PID.TID 0000.0001)                -1.131250000000000E+02,      /* K = 23 */
(PID.TID 0000.0001)                -1.185250000000000E+02,      /* K = 24 */
(PID.TID 0000.0001)                -1.241300000000000E+02,      /* K = 25 */
(PID.TID 0000.0001)                -1.300100000000000E+02,      /* K = 26 */
(PID.TID 0000.0001)                -1.362550000000000E+02,      /* K = 27 */
(PID.TID 0000.0001)                -1.429650000000000E+02,      /* K = 28 */
(PID.TID 0000.0001)                -1.502600000000000E+02,      /* K = 29 */
(PID.TID 0000.0001)                -1.582800000000000E+02,      /* K = 30 */
(PID.TID 0000.0001)                -1.671700000000000E+02,      /* K = 31 */
(PID.TID 0000.0001)                -1.770800000000000E+02,      /* K = 32 */
(PID.TID 0000.0001)                -1.881700000000000E+02,      /* K = 33 */
(PID.TID 0000.0001)                -2.005950000000000E+02,      /* K = 34 */
(PID.TID 0000.0001)                -2.145100000000000E+02,      /* K = 35 */
(PID.TID 0000.0001)                -2.300600000000000E+02,      /* K = 36 */
(PID.TID 0000.0001)                -2.473800000000000E+02,      /* K = 37 */
(PID.TID 0000.0001)                -2.665900000000000E+02,      /* K = 38 */
(PID.TID 0000.0001)                -2.877850000000000E+02,      /* K = 39 */
(PID.TID 0000.0001)                -3.110350000000000E+02,      /* K = 40 */
(PID.TID 0000.0001)                -3.363950000000000E+02,      /* K = 41 */
(PID.TID 0000.0001)                -3.638950000000000E+02,      /* K = 42 */
(PID.TID 0000.0001)                -3.935350000000000E+02,      /* K = 43 */
(PID.TID 0000.0001)                -4.252850000000000E+02,      /* K = 44 */
(PID.TID 0000.0001)                -4.590900000000000E+02,      /* K = 45 */
(PID.TID 0000.0001)                -4.948800000000001E+02,      /* K = 46 */
(PID.TID 0000.0001)                -5.325600000000001E+02,      /* K = 47 */
(PID.TID 0000.0001)                -5.720100000000001E+02,      /* K = 48 */
(PID.TID 0000.0001)                -6.130950000000001E+02,      /* K = 49 */
(PID.TID 0000.0001)                -6.556700000000002E+02,      /* K = 50 */
(PID.TID 0000.0001)                -6.995800000000002E+02,      /* K = 51 */
(PID.TID 0000.0001)                -7.446700000000002E+02,      /* K = 52 */
(PID.TID 0000.0001)                -7.907800000000002E+02,      /* K = 53 */
(PID.TID 0000.0001)                -8.377600000000002E+02,      /* K = 54 */
(PID.TID 0000.0001)                -8.854650000000003E+02,      /* K = 55 */
(PID.TID 0000.0001)                -9.337550000000002E+02,      /* K = 56 */
(PID.TID 0000.0001)                -9.825100000000002E+02,      /* K = 57 */
(PID.TID 0000.0001)                -1.031635000000000E+03,      /* K = 58 */
(PID.TID 0000.0001)                -1.081045000000000E+03,      /* K = 59 */
(PID.TID 0000.0001)                -1.130670000000000E+03,      /* K = 60 */
(PID.TID 0000.0001)                -1.180480000000000E+03,      /* K = 61 */
(PID.TID 0000.0001)                -1.230485000000000E+03,      /* K = 62 */
(PID.TID 0000.0001)                -1.280745000000000E+03,      /* K = 63 */
(PID.TID 0000.0001)                -1.331410000000000E+03,      /* K = 64 */
(PID.TID 0000.0001)                -1.382715000000000E+03,      /* K = 65 */
(PID.TID 0000.0001)                -1.434995000000000E+03,      /* K = 66 */
(PID.TID 0000.0001)                -1.488700000000000E+03,      /* K = 67 */
(PID.TID 0000.0001)                -1.544365000000000E+03,      /* K = 68 */
(PID.TID 0000.0001)                -1.602595000000000E+03,      /* K = 69 */
(PID.TID 0000.0001)                -1.664010000000000E+03,      /* K = 70 */
(PID.TID 0000.0001)                -1.729220000000000E+03,      /* K = 71 */
(PID.TID 0000.0001)                -1.798765000000000E+03,      /* K = 72 */
(PID.TID 0000.0001)                -1.873095000000000E+03,      /* K = 73 */
(PID.TID 0000.0001)                -1.952565000000000E+03,      /* K = 74 */
(PID.TID 0000.0001)                -2.037425000000000E+03,      /* K = 75 */
(PID.TID 0000.0001)                -2.127840000000000E+03,      /* K = 76 */
(PID.TID 0000.0001)                -2.223905000000000E+03,      /* K = 77 */
(PID.TID 0000.0001)                -2.325680000000000E+03,      /* K = 78 */
(PID.TID 0000.0001)                -2.433190000000001E+03,      /* K = 79 */
(PID.TID 0000.0001)                -2.546440000000001E+03,      /* K = 80 */
(PID.TID 0000.0001)                -2.665435000000000E+03,      /* K = 81 */
(PID.TID 0000.0001)                -2.790185000000000E+03,      /* K = 82 */
(PID.TID 0000.0001)                -2.920690000000001E+03,      /* K = 83 */
(PID.TID 0000.0001)                -3.056940000000001E+03,      /* K = 84 */
(PID.TID 0000.0001)                -3.198935000000000E+03,      /* K = 85 */
(PID.TID 0000.0001)                -3.346685000000000E+03,      /* K = 86 */
(PID.TID 0000.0001)                -3.500190000000001E+03,      /* K = 87 */
(PID.TID 0000.0001)                -3.659440000000001E+03,      /* K = 88 */
(PID.TID 0000.0001)                -3.824435000000000E+03,      /* K = 89 */
(PID.TID 0000.0001)                -3.995185000000000E+03,      /* K = 90 */
(PID.TID 0000.0001)                -4.171690000000001E+03,      /* K = 91 */
(PID.TID 0000.0001)                -4.353940000000001E+03,      /* K = 92 */
(PID.TID 0000.0001)                -4.541935000000000E+03,      /* K = 93 */
(PID.TID 0000.0001)                -4.735685000000000E+03,      /* K = 94 */
(PID.TID 0000.0001)                -4.935190000000001E+03,      /* K = 95 */
(PID.TID 0000.0001)                -5.140440000000001E+03,      /* K = 96 */
(PID.TID 0000.0001)                -5.351435000000000E+03,      /* K = 97 */
(PID.TID 0000.0001)                -5.568185000000000E+03,      /* K = 98 */
(PID.TID 0000.0001)                -5.790690000000001E+03,      /* K = 99 */
(PID.TID 0000.0001)                -6.018940000000001E+03       /* K =100 */
(PID.TID 0000.0001)     ;
(PID.TID 0000.0001) rF =   /* W-Interf. R coordinate (  units of r ) */
(PID.TID 0000.0001)                 0.000000000000000E+00,      /* K =  1 */
(PID.TID 0000.0001)                -5.000000000000000E+00,      /* K =  2 */
(PID.TID 0000.0001)                -1.000000000000000E+01,      /* K =  3 */
(PID.TID 0000.0001)                -1.500000000000000E+01,      /* K =  4 */
(PID.TID 0000.0001)                -2.000000000000000E+01,      /* K =  5 */
(PID.TID 0000.0001)                -2.500000000000000E+01,      /* K =  6 */
(PID.TID 0000.0001)                -3.000000000000000E+01,      /* K =  7 */
(PID.TID 0000.0001)                -3.500000000000000E+01,      /* K =  8 */
(PID.TID 0000.0001)                -4.000000000000000E+01,      /* K =  9 */
(PID.TID 0000.0001)                -4.500000000000000E+01,      /* K = 10 */
(PID.TID 0000.0001)                -5.000000000000000E+01,      /* K = 11 */
(PID.TID 0000.0001)                -5.500000000000000E+01,      /* K = 12 */
(PID.TID 0000.0001)                -6.000000000000000E+01,      /* K = 13 */
(PID.TID 0000.0001)                -6.500000000000000E+01,      /* K = 14 */
(PID.TID 0000.0001)                -7.000000000000000E+01,      /* K = 15 */
(PID.TID 0000.0001)                -7.500000000000000E+01,      /* K = 16 */
(PID.TID 0000.0001)                -8.001000000000001E+01,      /* K = 17 */
(PID.TID 0000.0001)                -8.502000000000001E+01,      /* K = 18 */
(PID.TID 0000.0001)                -9.004000000000001E+01,      /* K = 19 */
(PID.TID 0000.0001)                -9.508000000000001E+01,      /* K = 20 */
(PID.TID 0000.0001)                -1.001500000000000E+02,      /* K = 21 */
(PID.TID 0000.0001)                -1.052700000000000E+02,      /* K = 22 */
(PID.TID 0000.0001)                -1.104700000000000E+02,      /* K = 23 */
(PID.TID 0000.0001)                -1.157800000000000E+02,      /* K = 24 */
(PID.TID 0000.0001)                -1.212700000000000E+02,      /* K = 25 */
(PID.TID 0000.0001)                -1.269900000000000E+02,      /* K = 26 */
(PID.TID 0000.0001)                -1.330300000000000E+02,      /* K = 27 */
(PID.TID 0000.0001)                -1.394800000000000E+02,      /* K = 28 */
(PID.TID 0000.0001)                -1.464500000000000E+02,      /* K = 29 */
(PID.TID 0000.0001)                -1.540700000000000E+02,      /* K = 30 */
(PID.TID 0000.0001)                -1.624900000000000E+02,      /* K = 31 */
(PID.TID 0000.0001)                -1.718500000000000E+02,      /* K = 32 */
(PID.TID 0000.0001)                -1.823100000000000E+02,      /* K = 33 */
(PID.TID 0000.0001)                -1.940300000000000E+02,      /* K = 34 */
(PID.TID 0000.0001)                -2.071600000000000E+02,      /* K = 35 */
(PID.TID 0000.0001)                -2.218600000000000E+02,      /* K = 36 */
(PID.TID 0000.0001)                -2.382600000000000E+02,      /* K = 37 */
(PID.TID 0000.0001)                -2.564999999999999E+02,      /* K = 38 */
(PID.TID 0000.0001)                -2.766799999999999E+02,      /* K = 39 */
(PID.TID 0000.0001)                -2.988899999999999E+02,      /* K = 40 */
(PID.TID 0000.0001)                -3.231799999999999E+02,      /* K = 41 */
(PID.TID 0000.0001)                -3.496100000000000E+02,      /* K = 42 */
(PID.TID 0000.0001)                -3.781799999999999E+02,      /* K = 43 */
(PID.TID 0000.0001)                -4.088899999999999E+02,      /* K = 44 */
(PID.TID 0000.0001)                -4.416799999999999E+02,      /* K = 45 */
(PID.TID 0000.0001)                -4.764999999999999E+02,      /* K = 46 */
(PID.TID 0000.0001)                -5.132600000000000E+02,      /* K = 47 */
(PID.TID 0000.0001)                -5.518600000000000E+02,      /* K = 48 */
(PID.TID 0000.0001)                -5.921600000000000E+02,      /* K = 49 */
(PID.TID 0000.0001)                -6.340300000000000E+02,      /* K = 50 */
(PID.TID 0000.0001)                -6.773099999999999E+02,      /* K = 51 */
(PID.TID 0000.0001)                -7.218499999999999E+02,      /* K = 52 */
(PID.TID 0000.0001)                -7.674899999999999E+02,      /* K = 53 */
(PID.TID 0000.0001)                -8.140699999999999E+02,      /* K = 54 */
(PID.TID 0000.0001)                -8.614499999999999E+02,      /* K = 55 */
(PID.TID 0000.0001)                -9.094799999999999E+02,      /* K = 56 */
(PID.TID 0000.0001)                -9.580299999999999E+02,      /* K = 57 */
(PID.TID 0000.0001)                -1.006990000000000E+03,      /* K = 58 */
(PID.TID 0000.0001)                -1.056280000000000E+03,      /* K = 59 */
(PID.TID 0000.0001)                -1.105810000000000E+03,      /* K = 60 */
(PID.TID 0000.0001)                -1.155530000000000E+03,      /* K = 61 */
(PID.TID 0000.0001)                -1.205430000000000E+03,      /* K = 62 */
(PID.TID 0000.0001)                -1.255540000000000E+03,      /* K = 63 */
(PID.TID 0000.0001)                -1.305950000000000E+03,      /* K = 64 */
(PID.TID 0000.0001)                -1.356870000000000E+03,      /* K = 65 */
(PID.TID 0000.0001)                -1.408560000000000E+03,      /* K = 66 */
(PID.TID 0000.0001)                -1.461430000000000E+03,      /* K = 67 */
(PID.TID 0000.0001)                -1.515970000000000E+03,      /* K = 68 */
(PID.TID 0000.0001)                -1.572760000000000E+03,      /* K = 69 */
(PID.TID 0000.0001)                -1.632430000000000E+03,      /* K = 70 */
(PID.TID 0000.0001)                -1.695590000000000E+03,      /* K = 71 */
(PID.TID 0000.0001)                -1.762850000000000E+03,      /* K = 72 */
(PID.TID 0000.0001)                -1.834680000000000E+03,      /* K = 73 */
(PID.TID 0000.0001)                -1.911510000000000E+03,      /* K = 74 */
(PID.TID 0000.0001)                -1.993620000000000E+03,      /* K = 75 */
(PID.TID 0000.0001)                -2.081230000000000E+03,      /* K = 76 */
(PID.TID 0000.0001)                -2.174450000000000E+03,      /* K = 77 */
(PID.TID 0000.0001)                -2.273360000000000E+03,      /* K = 78 */
(PID.TID 0000.0001)                -2.378000000000000E+03,      /* K = 79 */
(PID.TID 0000.0001)                -2.488380000000000E+03,      /* K = 80 */
(PID.TID 0000.0001)                -2.604500000000000E+03,      /* K = 81 */
(PID.TID 0000.0001)                -2.726369999999999E+03,      /* K = 82 */
(PID.TID 0000.0001)                -2.854000000000000E+03,      /* K = 83 */
(PID.TID 0000.0001)                -2.987380000000000E+03,      /* K = 84 */
(PID.TID 0000.0001)                -3.126500000000000E+03,      /* K = 85 */
(PID.TID 0000.0001)                -3.271369999999999E+03,      /* K = 86 */
(PID.TID 0000.0001)                -3.422000000000000E+03,      /* K = 87 */
(PID.TID 0000.0001)                -3.578380000000000E+03,      /* K = 88 */
(PID.TID 0000.0001)                -3.740500000000000E+03,      /* K = 89 */
(PID.TID 0000.0001)                -3.908369999999999E+03,      /* K = 90 */
(PID.TID 0000.0001)                -4.082000000000000E+03,      /* K = 91 */
(PID.TID 0000.0001)                -4.261379999999999E+03,      /* K = 92 */
(PID.TID 0000.0001)                -4.446499999999999E+03,      /* K = 93 */
(PID.TID 0000.0001)                -4.637369999999999E+03,      /* K = 94 */
(PID.TID 0000.0001)                -4.833999999999999E+03,      /* K = 95 */
(PID.TID 0000.0001)                -5.036379999999999E+03,      /* K = 96 */
(PID.TID 0000.0001)                -5.244499999999999E+03,      /* K = 97 */
(PID.TID 0000.0001)                -5.458369999999999E+03,      /* K = 98 */
(PID.TID 0000.0001)                -5.677999999999999E+03,      /* K = 99 */
(PID.TID 0000.0001)                -5.903379999999999E+03,      /* K =100 */
(PID.TID 0000.0001)                -6.134499999999999E+03       /* K =101 */
(PID.TID 0000.0001)     ;
(PID.TID 0000.0001) deepFacC = /* deep-model grid factor @ cell-Center (-) */
(PID.TID 0000.0001)   100 @  1.000000000000000E+00              /* K =  1:100 */
(PID.TID 0000.0001)     ;
(PID.TID 0000.0001) deepFacF = /* deep-model grid factor @ W-Interface (-) */
(PID.TID 0000.0001)   101 @  1.000000000000000E+00              /* K =  1:101 */
(PID.TID 0000.0001)     ;
(PID.TID 0000.0001) rVel2wUnit = /* convert units: rVel -> wSpeed (=1 if z-coord)*/
(PID.TID 0000.0001)   101 @  1.000000000000000E+00              /* K =  1:101 */
(PID.TID 0000.0001)     ;
(PID.TID 0000.0001) wUnit2rVel = /* convert units: wSpeed -> rVel (=1 if z-coord)*/
(PID.TID 0000.0001)   101 @  1.000000000000000E+00              /* K =  1:101 */
(PID.TID 0000.0001)     ;
(PID.TID 0000.0001) dBdrRef = /* Vertical grad. of reference buoyancy [(m/s/r)^2] */
(PID.TID 0000.0001)     5 @  0.000000000000000E+00,             /* K =  1:  5 */
(PID.TID 0000.0001)                 9.694282843778342E-06,      /* K =  6 */
(PID.TID 0000.0001)                 2.426513223807763E-05,      /* K =  7 */
(PID.TID 0000.0001)                 1.452975530153167E-05,      /* K =  8 */
(PID.TID 0000.0001)                 9.681498625854328E-06,      /* K =  9 */
(PID.TID 0000.0001)                 4.842099844624020E-05,      /* K = 10 */
(PID.TID 0000.0001)                 6.280856330023614E-05,      /* K = 11 */
(PID.TID 0000.0001)                 8.185617076656702E-05,      /* K = 12 */
(PID.TID 0000.0001)                 1.295252644691406E-04,      /* K = 13 */
(PID.TID 0000.0001)                 1.095351351384002E-04,      /* K = 14 */
(PID.TID 0000.0001)                 1.329169312007239E-04,      /* K = 15 */
(PID.TID 0000.0001)                 1.367041979360881E-04,      /* K = 16 */
(PID.TID 0000.0001)                 1.211727126593573E-04,      /* K = 17 */
(PID.TID 0000.0001)                 1.302265701121417E-04,      /* K = 18 */
(PID.TID 0000.0001)                 1.190854314588815E-04,      /* K = 19 */
(PID.TID 0000.0001)                 1.132023267377615E-04,      /* K = 20 */
(PID.TID 0000.0001)                 1.071632265654582E-04,      /* K = 21 */
(PID.TID 0000.0001)                 1.051393672457803E-04,      /* K = 22 */
(PID.TID 0000.0001)                 1.025752720636568E-04,      /* K = 23 */
(PID.TID 0000.0001)                 9.917395824143918E-05,      /* K = 24 */
(PID.TID 0000.0001)                 9.104030067387556E-05,      /* K = 25 */
(PID.TID 0000.0001)                 8.624441260795840E-05,      /* K = 26 */
(PID.TID 0000.0001)                 8.413036901537412E-05,      /* K = 27 */
(PID.TID 0000.0001)                 6.366728012651445E-05,      /* K = 28 */
(PID.TID 0000.0001)                 5.812092618380799E-05,      /* K = 29 */
(PID.TID 0000.0001)                 5.507951137016039E-05,      /* K = 30 */
(PID.TID 0000.0001)                 4.695510592930360E-05,      /* K = 31 */
(PID.TID 0000.0001)                 4.596409715692217E-05,      /* K = 32 */
(PID.TID 0000.0001)                 4.072795425761271E-05,      /* K = 33 */
(PID.TID 0000.0001)                 3.175298295526856E-05,      /* K = 34 */
(PID.TID 0000.0001)                 3.093452381022950E-05,      /* K = 35 */
(PID.TID 0000.0001)                 2.864003459600112E-05,      /* K = 36 */
(PID.TID 0000.0001)                 2.767315329576147E-05,      /* K = 37 */
(PID.TID 0000.0001)                 2.463000191580109E-05,      /* K = 38 */
(PID.TID 0000.0001)                 2.475053767167416E-05,      /* K = 39 */
(PID.TID 0000.0001)                 1.906506350221241E-05,      /* K = 40 */
(PID.TID 0000.0001)                 1.865582618722828E-05,      /* K = 41 */
(PID.TID 0000.0001)                 1.823366094760355E-05,      /* K = 42 */
(PID.TID 0000.0001)                 1.471037885515795E-05,      /* K = 43 */
(PID.TID 0000.0001)                 1.630603945735049E-05,      /* K = 44 */
(PID.TID 0000.0001)                 1.384745352787863E-05,      /* K = 45 */
(PID.TID 0000.0001)                 1.226594411185851E-05,      /* K = 46 */
(PID.TID 0000.0001)                 1.225310460290910E-05,      /* K = 47 */
(PID.TID 0000.0001)                 1.223011113144029E-05,      /* K = 48 */
(PID.TID 0000.0001)                 1.061638239990844E-05,      /* K = 49 */
(PID.TID 0000.0001)                 1.070650633014499E-05,      /* K = 50 */
(PID.TID 0000.0001)                 9.357472423340062E-06,      /* K = 51 */
(PID.TID 0000.0001)                 9.812756875994976E-06,      /* K = 52 */
(PID.TID 0000.0001)                 9.364680965538371E-06,      /* K = 53 */
(PID.TID 0000.0001)                 6.430982300518885E-06,      /* K = 54 */
(PID.TID 0000.0001)                 8.970058816087760E-06,      /* K = 55 */
(PID.TID 0000.0001)                 8.398462027768182E-06,      /* K = 56 */
(PID.TID 0000.0001)                 7.294531901104187E-06,      /* K = 57 */
(PID.TID 0000.0001)                 8.642565592484861E-06,      /* K = 58 */
(PID.TID 0000.0001)                 6.405731826441176E-06,      /* K = 59 */
(PID.TID 0000.0001)                 8.743452988220992E-06,      /* K = 60 */
(PID.TID 0000.0001)                 6.590306221026928E-06,      /* K = 61 */
(PID.TID 0000.0001)                 7.462277694900194E-06,      /* K = 62 */
(PID.TID 0000.0001)                 5.625478499738029E-06,      /* K = 63 */
(PID.TID 0000.0001)                 6.494457456351866E-06,      /* K = 64 */
(PID.TID 0000.0001)                 5.872364624284492E-06,      /* K = 65 */
(PID.TID 0000.0001)                 5.495436518643386E-06,      /* K = 66 */
(PID.TID 0000.0001)                 5.094601592541214E-06,      /* K = 67 */
(PID.TID 0000.0001)                 4.437172619322077E-06,      /* K = 68 */
(PID.TID 0000.0001)                 4.016940542409763E-06,      /* K = 69 */
(PID.TID 0000.0001)                 4.028908121728164E-06,      /* K = 70 */
(PID.TID 0000.0001)                 2.246388502686123E-06,      /* K = 71 */
(PID.TID 0000.0001)                 2.998142894531076E-06,      /* K = 72 */
(PID.TID 0000.0001)                 2.815413573924730E-06,      /* K = 73 */
(PID.TID 0000.0001)                 2.814329879263964E-06,      /* K = 74 */
(PID.TID 0000.0001)                 2.327158902006369E-06,      /* K = 75 */
(PID.TID 0000.0001)                 1.523559191918705E-06,      /* K = 76 */
(PID.TID 0000.0001)                 2.223754279938488E-06,      /* K = 77 */
(PID.TID 0000.0001)                 1.243572598777220E-06,      /* K = 78 */
(PID.TID 0000.0001)                 1.884009398486976E-06,      /* K = 79 */
(PID.TID 0000.0001)                 1.146309977456730E-06,      /* K = 80 */
(PID.TID 0000.0001)                 9.836409573498765E-07,      /* K = 81 */
(PID.TID 0000.0001)                 1.666564082034753E-06,      /* K = 82 */
(PID.TID 0000.0001)                 8.096789666921265E-07,      /* K = 83 */
(PID.TID 0000.0001)                 9.015806361848934E-07,      /* K = 84 */
(PID.TID 0000.0001)                 9.899996711216439E-07,      /* K = 85 */
(PID.TID 0000.0001)                 1.360959195968683E-06,      /* K = 86 */
(PID.TID 0000.0001)                 3.633635105266278E-07,      /* K = 87 */
(PID.TID 0000.0001)                 7.257552276248978E-07,      /* K = 88 */
(PID.TID 0000.0001)                 8.165089567519712E-07,      /* K = 89 */
(PID.TID 0000.0001)                 7.043987264958734E-07,      /* K = 90 */
(PID.TID 0000.0001)                 6.956983617110328E-07,      /* K = 91 */
(PID.TID 0000.0001)                 6.880703959048398E-07,      /* K = 92 */
(PID.TID 0000.0001)                 6.813676413074075E-07,      /* K = 93 */
(PID.TID 0000.0001)                 6.754628223828996E-07,      /* K = 94 */
(PID.TID 0000.0001)                 3.049729588883796E-07,      /* K = 95 */
(PID.TID 0000.0001)                 6.657955553385863E-07,      /* K = 96 */
(PID.TID 0000.0001)                 5.675084375793845E-07,      /* K = 97 */
(PID.TID 0000.0001)                 3.767262833194376E-07,      /* K = 98 */
(PID.TID 0000.0001)                 2.816808424830599E-07,      /* K = 99 */
(PID.TID 0000.0001)                 1.873891169846885E-07       /* K =100 */
(PID.TID 0000.0001)     ;
(PID.TID 0000.0001) rotateGrid = /* use rotated grid ( True/False ) */
(PID.TID 0000.0001)                   F
(PID.TID 0000.0001)     ;
(PID.TID 0000.0001) phiEuler = /* Euler angle, rotation about original z-coordinate [rad] */
(PID.TID 0000.0001)                 0.000000000000000E+00
(PID.TID 0000.0001)     ;
(PID.TID 0000.0001) thetaEuler = /* Euler angle, rotation about new x-coordinate [rad] */
(PID.TID 0000.0001)                 0.000000000000000E+00
(PID.TID 0000.0001)     ;
(PID.TID 0000.0001) psiEuler = /* Euler angle, rotation about new z-coordinate [rad] */
(PID.TID 0000.0001)                 0.000000000000000E+00
(PID.TID 0000.0001)     ;
(PID.TID 0000.0001) dxF =  /* dxF(:,1,:,1) ( units: m ) */
(PID.TID 0000.0001)   330 @  4.132168078704865E+03              /* I =  1:330 */
(PID.TID 0000.0001)     ;
(PID.TID 0000.0001) dxF =  /* dxF(1,:,1,:) ( units: m ) */
(PID.TID 0000.0001)                 4.132168078704865E+03,      /* J =  1 */
(PID.TID 0000.0001)                 4.130918776160077E+03,      /* J =  2 */
(PID.TID 0000.0001)                 4.129668354115694E+03,      /* J =  3 */
(PID.TID 0000.0001)                 4.128416849220377E+03,      /* J =  4 */
(PID.TID 0000.0001)                 4.127164263270209E+03,      /* J =  5 */
(PID.TID 0000.0001)                 4.125910563003906E+03,      /* J =  6 */
(PID.TID 0000.0001)                 4.124655785191007E+03,      /* J =  7 */
(PID.TID 0000.0001)                 4.123399931625523E+03,      /* J =  8 */
(PID.TID 0000.0001)                 4.122142968921520E+03,      /* J =  9 */
(PID.TID 0000.0001)                 4.120884933969184E+03,      /* J = 10 */
(PID.TID 0000.0001)                 4.119625828560444E+03,      /* J = 11 */
(PID.TID 0000.0001)                 4.118365654486509E+03,      /* J = 12 */
(PID.TID 0000.0001)                 4.117104378195548E+03,      /* J = 13 */
(PID.TID 0000.0001)                 4.115842036738223E+03,      /* J = 14 */
(PID.TID 0000.0001)                 4.114578631903650E+03,      /* J = 15 */
(PID.TID 0000.0001)                 4.113314130015837E+03,      /* J = 16 */
(PID.TID 0000.0001)                 4.112048568245555E+03,      /* J = 17 */
(PID.TID 0000.0001)                 4.110781948379812E+03,      /* J = 18 */
(PID.TID 0000.0001)                 4.109514272204890E+03,      /* J = 19 */
(PID.TID 0000.0001)                 4.108245541506343E+03,      /* J = 20 */
(PID.TID 0000.0001)                 4.106975758068988E+03,      /* J = 21 */
(PID.TID 0000.0001)                 4.105704887969090E+03,      /* J = 22 */
(PID.TID 0000.0001)                 4.104432968616856E+03,      /* J = 23 */
(PID.TID 0000.0001)                 4.103160001794981E+03,      /* J = 24 */
(PID.TID 0000.0001)                 4.101885953456212E+03,      /* J = 25 */
(PID.TID 0000.0001)                 4.100610861130162E+03,      /* J = 26 */
(PID.TID 0000.0001)                 4.099334762507415E+03,      /* J = 27 */
(PID.TID 0000.0001)                 4.098057587588119E+03       /* J = 28 */
(PID.TID 0000.0001)     ;
(PID.TID 0000.0001) dyF =  /* dyF(:,1,:,1) ( units: m ) */
(PID.TID 0000.0001)   330 @  3.798951025203276E+03              /* I =  1:330 */
(PID.TID 0000.0001)     ;
(PID.TID 0000.0001) dyF =  /* dyF(1,:,1,:) ( units: m ) */
(PID.TID 0000.0001)                 3.798951025203276E+03,      /* J =  1 */
(PID.TID 0000.0001)                 3.797890754194288E+03,      /* J =  2 */
(PID.TID 0000.0001)                 3.796830483185300E+03,      /* J =  3 */
(PID.TID 0000.0001)                 3.795558157974515E+03,      /* J =  4 */
(PID.TID 0000.0001)                 3.794497886965527E+03,      /* J =  5 */
(PID.TID 0000.0001)                 3.793437615956539E+03,      /* J =  6 */
(PID.TID 0000.0001)                 3.792165290745754E+03,      /* J =  7 */
(PID.TID 0000.0001)                 3.791105019736766E+03,      /* J =  8 */
(PID.TID 0000.0001)                 3.790044748727778E+03,      /* J =  9 */
(PID.TID 0000.0001)                 3.788772423516993E+03,      /* J = 10 */
(PID.TID 0000.0001)                 3.787712152508005E+03,      /* J = 11 */
(PID.TID 0000.0001)                 3.786439827297219E+03,      /* J = 12 */
(PID.TID 0000.0001)                 3.785591610490029E+03,      /* J = 13 */
(PID.TID 0000.0001)                 3.784107231077447E+03,      /* J = 14 */
(PID.TID 0000.0001)                 3.783259014270256E+03,      /* J = 15 */
(PID.TID 0000.0001)                 3.781986689059471E+03,      /* J = 16 */
(PID.TID 0000.0001)                 3.780926418050483E+03,      /* J = 17 */
(PID.TID 0000.0001)                 3.779654092839698E+03,      /* J = 18 */
(PID.TID 0000.0001)                 3.778593821830710E+03,      /* J = 19 */
(PID.TID 0000.0001)                 3.777321496619924E+03,      /* J = 20 */
(PID.TID 0000.0001)                 3.776261225610937E+03,      /* J = 21 */
(PID.TID 0000.0001)                 3.775200954601949E+03,      /* J = 22 */
(PID.TID 0000.0001)                 3.773928629391164E+03,      /* J = 23 */
(PID.TID 0000.0001)                 3.772868358382176E+03,      /* J = 24 */
(PID.TID 0000.0001)                 3.771808087373188E+03,      /* J = 25 */
(PID.TID 0000.0001)                 3.770535762162403E+03,      /* J = 26 */
(PID.TID 0000.0001)                 3.769263436951617E+03,      /* J = 27 */
(PID.TID 0000.0001)                 3.768415220144427E+03       /* J = 28 */
(PID.TID 0000.0001)     ;
(PID.TID 0000.0001) dxG =  /* dxG(:,1,:,1) ( units: m ) */
(PID.TID 0000.0001)   330 @  4.132792266102490E+03              /* I =  1:330 */
(PID.TID 0000.0001)     ;
(PID.TID 0000.0001) dxG =  /* dxG(1,:,1,:) ( units: m ) */
(PID.TID 0000.0001)                 4.132792266102490E+03,      /* J =  1 */
(PID.TID 0000.0001)                 4.131543523884096E+03,      /* J =  2 */
(PID.TID 0000.0001)                 4.130293661329000E+03,      /* J =  3 */
(PID.TID 0000.0001)                 4.129042680111336E+03,      /* J =  4 */
(PID.TID 0000.0001)                 4.127790651895232E+03,      /* J =  5 */
(PID.TID 0000.0001)                 4.126537508526810E+03,      /* J =  6 */
(PID.TID 0000.0001)                 4.125283251678356E+03,      /* J =  7 */
(PID.TID 0000.0001)                 4.124027953257525E+03,      /* J =  8 */
(PID.TID 0000.0001)                 4.122771544862921E+03,      /* J =  9 */
(PID.TID 0000.0001)                 4.121514028164970E+03,      /* J = 10 */
(PID.TID 0000.0001)                 4.120255475314408E+03,      /* J = 11 */
(PID.TID 0000.0001)                 4.118995817662741E+03,      /* J = 12 */
(PID.TID 0000.0001)                 4.117735127522450E+03,      /* J = 13 */
(PID.TID 0000.0001)                 4.116473265355150E+03,      /* J = 14 */
(PID.TID 0000.0001)                 4.115210445004191E+03,      /* J = 15 */
(PID.TID 0000.0001)                 4.113946455960185E+03,      /* J = 16 */
(PID.TID 0000.0001)                 4.112681441584010E+03,      /* J = 17 */
(PID.TID 0000.0001)                 4.111415332734301E+03,      /* J = 18 */
(PID.TID 0000.0001)                 4.110148202207719E+03,      /* J = 19 */
(PID.TID 0000.0001)                 4.108879980698939E+03,      /* J = 20 */
(PID.TID 0000.0001)                 4.107610741165563E+03,      /* J = 21 */
(PID.TID 0000.0001)                 4.106340414138508E+03,      /* J = 22 */
(PID.TID 0000.0001)                 4.105069001279958E+03,      /* J = 23 */
(PID.TID 0000.0001)                 4.103796575788615E+03,      /* J = 24 */
(PID.TID 0000.0001)                 4.102523067950195E+03,      /* J = 25 */
(PID.TID 0000.0001)                 4.101248479424976E+03,      /* J = 26 */
(PID.TID 0000.0001)                 4.099972883652305E+03,      /* J = 27 */
(PID.TID 0000.0001)                 4.098696282533544E+03       /* J = 28 */
(PID.TID 0000.0001)     ;
(PID.TID 0000.0001) dyG =  /* dyG(:,1,:,1) ( units: m ) */
(PID.TID 0000.0001)   330 @  3.798951025203276E+03              /* I =  1:330 */
(PID.TID 0000.0001)     ;
(PID.TID 0000.0001) dyG =  /* dyG(1,:,1,:) ( units: m ) */
(PID.TID 0000.0001)                 3.798951025203276E+03,      /* J =  1 */
(PID.TID 0000.0001)                 3.797890754194288E+03,      /* J =  2 */
(PID.TID 0000.0001)                 3.796830483185300E+03,      /* J =  3 */
(PID.TID 0000.0001)                 3.795558157974515E+03,      /* J =  4 */
(PID.TID 0000.0001)                 3.794497886965527E+03,      /* J =  5 */
(PID.TID 0000.0001)                 3.793437615956539E+03,      /* J =  6 */
(PID.TID 0000.0001)                 3.792165290745754E+03,      /* J =  7 */
(PID.TID 0000.0001)                 3.791105019736766E+03,      /* J =  8 */
(PID.TID 0000.0001)                 3.790044748727778E+03,      /* J =  9 */
(PID.TID 0000.0001)                 3.788772423516993E+03,      /* J = 10 */
(PID.TID 0000.0001)                 3.787712152508005E+03,      /* J = 11 */
(PID.TID 0000.0001)                 3.786439827297219E+03,      /* J = 12 */
(PID.TID 0000.0001)                 3.785591610490029E+03,      /* J = 13 */
(PID.TID 0000.0001)                 3.784107231077447E+03,      /* J = 14 */
(PID.TID 0000.0001)                 3.783259014270256E+03,      /* J = 15 */
(PID.TID 0000.0001)                 3.781986689059471E+03,      /* J = 16 */
(PID.TID 0000.0001)                 3.780926418050483E+03,      /* J = 17 */
(PID.TID 0000.0001)                 3.779654092839698E+03,      /* J = 18 */
(PID.TID 0000.0001)                 3.778593821830710E+03,      /* J = 19 */
(PID.TID 0000.0001)                 3.777321496619924E+03,      /* J = 20 */
(PID.TID 0000.0001)                 3.776261225610937E+03,      /* J = 21 */
(PID.TID 0000.0001)                 3.775200954601949E+03,      /* J = 22 */
(PID.TID 0000.0001)                 3.773928629391164E+03,      /* J = 23 */
(PID.TID 0000.0001)                 3.772868358382176E+03,      /* J = 24 */
(PID.TID 0000.0001)                 3.771808087373188E+03,      /* J = 25 */
(PID.TID 0000.0001)                 3.770535762162403E+03,      /* J = 26 */
(PID.TID 0000.0001)                 3.769263436951617E+03,      /* J = 27 */
(PID.TID 0000.0001)                 3.768415220144427E+03       /* J = 28 */
(PID.TID 0000.0001)     ;
(PID.TID 0000.0001) dxC =  /* dxC(:,1,:,1) ( units: m ) */
(PID.TID 0000.0001)   330 @  4.132168078704865E+03              /* I =  1:330 */
(PID.TID 0000.0001)     ;
(PID.TID 0000.0001) dxC =  /* dxC(1,:,1,:) ( units: m ) */
(PID.TID 0000.0001)                 4.132168078704865E+03,      /* J =  1 */
(PID.TID 0000.0001)                 4.130918776160077E+03,      /* J =  2 */
(PID.TID 0000.0001)                 4.129668354115694E+03,      /* J =  3 */
(PID.TID 0000.0001)                 4.128416849220377E+03,      /* J =  4 */
(PID.TID 0000.0001)                 4.127164263270209E+03,      /* J =  5 */
(PID.TID 0000.0001)                 4.125910563003906E+03,      /* J =  6 */
(PID.TID 0000.0001)                 4.124655785191007E+03,      /* J =  7 */
(PID.TID 0000.0001)                 4.123399931625523E+03,      /* J =  8 */
(PID.TID 0000.0001)                 4.122142968921520E+03,      /* J =  9 */
(PID.TID 0000.0001)                 4.120884933969184E+03,      /* J = 10 */
(PID.TID 0000.0001)                 4.119625828560444E+03,      /* J = 11 */
(PID.TID 0000.0001)                 4.118365654486509E+03,      /* J = 12 */
(PID.TID 0000.0001)                 4.117104378195548E+03,      /* J = 13 */
(PID.TID 0000.0001)                 4.115842036738223E+03,      /* J = 14 */
(PID.TID 0000.0001)                 4.114578631903650E+03,      /* J = 15 */
(PID.TID 0000.0001)                 4.113314130015837E+03,      /* J = 16 */
(PID.TID 0000.0001)                 4.112048568245555E+03,      /* J = 17 */
(PID.TID 0000.0001)                 4.110781948379812E+03,      /* J = 18 */
(PID.TID 0000.0001)                 4.109514272204890E+03,      /* J = 19 */
(PID.TID 0000.0001)                 4.108245541506343E+03,      /* J = 20 */
(PID.TID 0000.0001)                 4.106975758068988E+03,      /* J = 21 */
(PID.TID 0000.0001)                 4.105704887969090E+03,      /* J = 22 */
(PID.TID 0000.0001)                 4.104432968616856E+03,      /* J = 23 */
(PID.TID 0000.0001)                 4.103160001794981E+03,      /* J = 24 */
(PID.TID 0000.0001)                 4.101885953456212E+03,      /* J = 25 */
(PID.TID 0000.0001)                 4.100610861130162E+03,      /* J = 26 */
(PID.TID 0000.0001)                 4.099334762507415E+03,      /* J = 27 */
(PID.TID 0000.0001)                 4.098057587588119E+03       /* J = 28 */
(PID.TID 0000.0001)     ;
(PID.TID 0000.0001) dyC =  /* dyC(:,1,:,1) ( units: m ) */
(PID.TID 0000.0001)   330 @  3.463587305060435E+03              /* I =  1:330 */
(PID.TID 0000.0001)     ;
(PID.TID 0000.0001) dyC =  /* dyC(1,:,1,:) ( units: m ) */
(PID.TID 0000.0001)                 3.463587305060435E+03,      /* J =  1 */
(PID.TID 0000.0001)                 3.798420889698782E+03,      /* J =  2 */
(PID.TID 0000.0001)                 3.797360618689794E+03,      /* J =  3 */
(PID.TID 0000.0001)                 3.796194320579908E+03,      /* J =  4 */
(PID.TID 0000.0001)                 3.795028022470021E+03,      /* J =  5 */
(PID.TID 0000.0001)                 3.793967751461033E+03,      /* J =  6 */
(PID.TID 0000.0001)                 3.792801453351146E+03,      /* J =  7 */
(PID.TID 0000.0001)                 3.791635155241260E+03,      /* J =  8 */
(PID.TID 0000.0001)                 3.790574884232272E+03,      /* J =  9 */
(PID.TID 0000.0001)                 3.789408586122385E+03,      /* J = 10 */
(PID.TID 0000.0001)                 3.788242288012499E+03,      /* J = 11 */
(PID.TID 0000.0001)                 3.787075989902612E+03,      /* J = 12 */
(PID.TID 0000.0001)                 3.786015718893625E+03,      /* J = 13 */
(PID.TID 0000.0001)                 3.784849420783738E+03,      /* J = 14 */
(PID.TID 0000.0001)                 3.783683122673851E+03,      /* J = 15 */
(PID.TID 0000.0001)                 3.782622851664863E+03,      /* J = 16 */
(PID.TID 0000.0001)                 3.781456553554977E+03,      /* J = 17 */
(PID.TID 0000.0001)                 3.780290255445090E+03,      /* J = 18 */
(PID.TID 0000.0001)                 3.779123957335204E+03,      /* J = 19 */
(PID.TID 0000.0001)                 3.777957659225317E+03,      /* J = 20 */
(PID.TID 0000.0001)                 3.776791361115431E+03,      /* J = 21 */
(PID.TID 0000.0001)                 3.775731090106443E+03,      /* J = 22 */
(PID.TID 0000.0001)                 3.774564791996556E+03,      /* J = 23 */
(PID.TID 0000.0001)                 3.773398493886670E+03,      /* J = 24 */
(PID.TID 0000.0001)                 3.772338222877682E+03,      /* J = 25 */
(PID.TID 0000.0001)                 3.771171924767795E+03,      /* J = 26 */
(PID.TID 0000.0001)                 3.769899599557010E+03,      /* J = 27 */
(PID.TID 0000.0001)                 3.768839328548022E+03       /* J = 28 */
(PID.TID 0000.0001)     ;
(PID.TID 0000.0001) dxV =  /* dxV(:,1,:,1) ( units: m ) */
(PID.TID 0000.0001)   330 @  4.132792266102490E+03              /* I =  1:330 */
(PID.TID 0000.0001)     ;
(PID.TID 0000.0001) dxV =  /* dxV(1,:,1,:) ( units: m ) */
(PID.TID 0000.0001)                 4.132792266102490E+03,      /* J =  1 */
(PID.TID 0000.0001)                 4.131543523884096E+03,      /* J =  2 */
(PID.TID 0000.0001)                 4.130293661329000E+03,      /* J =  3 */
(PID.TID 0000.0001)                 4.129042680111336E+03,      /* J =  4 */
(PID.TID 0000.0001)                 4.127790651895232E+03,      /* J =  5 */
(PID.TID 0000.0001)                 4.126537508526810E+03,      /* J =  6 */
(PID.TID 0000.0001)                 4.125283251678356E+03,      /* J =  7 */
(PID.TID 0000.0001)                 4.124027953257525E+03,      /* J =  8 */
(PID.TID 0000.0001)                 4.122771544862921E+03,      /* J =  9 */
(PID.TID 0000.0001)                 4.121514028164970E+03,      /* J = 10 */
(PID.TID 0000.0001)                 4.120255475314408E+03,      /* J = 11 */
(PID.TID 0000.0001)                 4.118995817662741E+03,      /* J = 12 */
(PID.TID 0000.0001)                 4.117735127522450E+03,      /* J = 13 */
(PID.TID 0000.0001)                 4.116473265355150E+03,      /* J = 14 */
(PID.TID 0000.0001)                 4.115210445004191E+03,      /* J = 15 */
(PID.TID 0000.0001)                 4.113946455960185E+03,      /* J = 16 */
(PID.TID 0000.0001)                 4.112681441584010E+03,      /* J = 17 */
(PID.TID 0000.0001)                 4.111415332734301E+03,      /* J = 18 */
(PID.TID 0000.0001)                 4.110148202207719E+03,      /* J = 19 */
(PID.TID 0000.0001)                 4.108879980698939E+03,      /* J = 20 */
(PID.TID 0000.0001)                 4.107610741165563E+03,      /* J = 21 */
(PID.TID 0000.0001)                 4.106340414138508E+03,      /* J = 22 */
(PID.TID 0000.0001)                 4.105069001279958E+03,      /* J = 23 */
(PID.TID 0000.0001)                 4.103796575788615E+03,      /* J = 24 */
(PID.TID 0000.0001)                 4.102523067950195E+03,      /* J = 25 */
(PID.TID 0000.0001)                 4.101248479424976E+03,      /* J = 26 */
(PID.TID 0000.0001)                 4.099972883652305E+03,      /* J = 27 */
(PID.TID 0000.0001)                 4.098696282533544E+03       /* J = 28 */
(PID.TID 0000.0001)     ;
(PID.TID 0000.0001) dyU =  /* dyU(:,1,:,1) ( units: m ) */
(PID.TID 0000.0001)   330 @  3.463587305060435E+03              /* I =  1:330 */
(PID.TID 0000.0001)     ;
(PID.TID 0000.0001) dyU =  /* dyU(1,:,1,:) ( units: m ) */
(PID.TID 0000.0001)                 3.463587305060435E+03,      /* J =  1 */
(PID.TID 0000.0001)                 3.798420889698782E+03,      /* J =  2 */
(PID.TID 0000.0001)                 3.797360618689794E+03,      /* J =  3 */
(PID.TID 0000.0001)                 3.796194320579908E+03,      /* J =  4 */
(PID.TID 0000.0001)                 3.795028022470021E+03,      /* J =  5 */
(PID.TID 0000.0001)                 3.793967751461033E+03,      /* J =  6 */
(PID.TID 0000.0001)                 3.792801453351146E+03,      /* J =  7 */
(PID.TID 0000.0001)                 3.791635155241260E+03,      /* J =  8 */
(PID.TID 0000.0001)                 3.790574884232272E+03,      /* J =  9 */
(PID.TID 0000.0001)                 3.789408586122385E+03,      /* J = 10 */
(PID.TID 0000.0001)                 3.788242288012499E+03,      /* J = 11 */
(PID.TID 0000.0001)                 3.787075989902612E+03,      /* J = 12 */
(PID.TID 0000.0001)                 3.786015718893625E+03,      /* J = 13 */
(PID.TID 0000.0001)                 3.784849420783738E+03,      /* J = 14 */
(PID.TID 0000.0001)                 3.783683122673851E+03,      /* J = 15 */
(PID.TID 0000.0001)                 3.782622851664863E+03,      /* J = 16 */
(PID.TID 0000.0001)                 3.781456553554977E+03,      /* J = 17 */
(PID.TID 0000.0001)                 3.780290255445090E+03,      /* J = 18 */
(PID.TID 0000.0001)                 3.779123957335204E+03,      /* J = 19 */
(PID.TID 0000.0001)                 3.777957659225317E+03,      /* J = 20 */
(PID.TID 0000.0001)                 3.776791361115431E+03,      /* J = 21 */
(PID.TID 0000.0001)                 3.775731090106443E+03,      /* J = 22 */
(PID.TID 0000.0001)                 3.774564791996556E+03,      /* J = 23 */
(PID.TID 0000.0001)                 3.773398493886670E+03,      /* J = 24 */
(PID.TID 0000.0001)                 3.772338222877682E+03,      /* J = 25 */
(PID.TID 0000.0001)                 3.771171924767795E+03,      /* J = 26 */
(PID.TID 0000.0001)                 3.769899599557010E+03,      /* J = 27 */
(PID.TID 0000.0001)                 3.768839328548022E+03       /* J = 28 */
(PID.TID 0000.0001)     ;
(PID.TID 0000.0001) rA  =  /* rA (:,1,:,1) ( units: m^2 ) */
(PID.TID 0000.0001)   330 @  1.569790392627073E+07              /* I =  1:330 */
(PID.TID 0000.0001)     ;
(PID.TID 0000.0001) rA  =  /* rA (1,:,1,:) ( units: m^2 ) */
(PID.TID 0000.0001)                 1.569790392627073E+07,      /* J =  1 */
(PID.TID 0000.0001)                 1.568877799393386E+07,      /* J =  2 */
(PID.TID 0000.0001)                 1.567965046024477E+07,      /* J =  3 */
(PID.TID 0000.0001)                 1.566964601977351E+07,      /* J =  4 */
(PID.TID 0000.0001)                 1.566051584459966E+07,      /* J =  5 */
(PID.TID 0000.0001)                 1.565138409849535E+07,      /* J =  6 */
(PID.TID 0000.0001)                 1.564137627390480E+07,      /* J =  7 */
(PID.TID 0000.0001)                 1.563224194845815E+07,      /* J =  8 */
(PID.TID 0000.0001)                 1.562310608242249E+07,      /* J =  9 */
(PID.TID 0000.0001)                 1.561309496816712E+07,      /* J = 10 */
(PID.TID 0000.0001)                 1.560395658474481E+07,      /* J = 11 */
(PID.TID 0000.0001)                 1.559394350794555E+07,      /* J = 12 */
(PID.TID 0000.0001)                 1.558567556425542E+07,      /* J = 13 */
(PID.TID 0000.0001)                 1.557478738418195E+07,      /* J = 14 */
(PID.TID 0000.0001)                 1.556651647028628E+07,      /* J = 15 */
(PID.TID 0000.0001)                 1.555649905915226E+07,      /* J = 16 */
(PID.TID 0000.0001)                 1.554735283576100E+07,      /* J = 17 */
(PID.TID 0000.0001)                 1.553733358804201E+07,      /* J = 18 */
(PID.TID 0000.0001)                 1.552818501201680E+07,      /* J = 19 */
(PID.TID 0000.0001)                 1.551816396996124E+07,      /* J = 20 */
(PID.TID 0000.0001)                 1.550901308262007E+07,      /* J = 21 */
(PID.TID 0000.0001)                 1.549986078553674E+07,      /* J = 22 */
(PID.TID 0000.0001)                 1.548983686113863E+07,      /* J = 23 */
(PID.TID 0000.0001)                 1.548068231387437E+07,      /* J = 24 */
(PID.TID 0000.0001)                 1.547152638671146E+07,      /* J = 25 */
(PID.TID 0000.0001)                 1.546149967288220E+07,      /* J = 26 */
(PID.TID 0000.0001)                 1.545147241072469E+07,      /* J = 27 */
(PID.TID 0000.0001)                 1.544318236089779E+07       /* J = 28 */
(PID.TID 0000.0001)     ;
(PID.TID 0000.0001) rAw =  /* rAw(:,1,:,1) ( units: m^2 ) */
(PID.TID 0000.0001)   330 @  1.569790392627073E+07              /* I =  1:330 */
(PID.TID 0000.0001)     ;
(PID.TID 0000.0001) rAw =  /* rAw(1,:,1,:) ( units: m^2 ) */
(PID.TID 0000.0001)                 1.569790392627073E+07,      /* J =  1 */
(PID.TID 0000.0001)                 1.568877799393386E+07,      /* J =  2 */
(PID.TID 0000.0001)                 1.567965046024477E+07,      /* J =  3 */
(PID.TID 0000.0001)                 1.566964601977351E+07,      /* J =  4 */
(PID.TID 0000.0001)                 1.566051584459966E+07,      /* J =  5 */
(PID.TID 0000.0001)                 1.565138409849535E+07,      /* J =  6 */
(PID.TID 0000.0001)                 1.564137627390480E+07,      /* J =  7 */
(PID.TID 0000.0001)                 1.563224194845815E+07,      /* J =  8 */
(PID.TID 0000.0001)                 1.562310608242249E+07,      /* J =  9 */
(PID.TID 0000.0001)                 1.561309496816712E+07,      /* J = 10 */
(PID.TID 0000.0001)                 1.560395658474481E+07,      /* J = 11 */
(PID.TID 0000.0001)                 1.559394350794555E+07,      /* J = 12 */
(PID.TID 0000.0001)                 1.558567556425542E+07,      /* J = 13 */
(PID.TID 0000.0001)                 1.557478738418195E+07,      /* J = 14 */
(PID.TID 0000.0001)                 1.556651647028628E+07,      /* J = 15 */
(PID.TID 0000.0001)                 1.555649905915226E+07,      /* J = 16 */
(PID.TID 0000.0001)                 1.554735283576100E+07,      /* J = 17 */
(PID.TID 0000.0001)                 1.553733358804201E+07,      /* J = 18 */
(PID.TID 0000.0001)                 1.552818501201680E+07,      /* J = 19 */
(PID.TID 0000.0001)                 1.551816396996124E+07,      /* J = 20 */
(PID.TID 0000.0001)                 1.550901308262007E+07,      /* J = 21 */
(PID.TID 0000.0001)                 1.549986078553674E+07,      /* J = 22 */
(PID.TID 0000.0001)                 1.548983686113863E+07,      /* J = 23 */
(PID.TID 0000.0001)                 1.548068231387437E+07,      /* J = 24 */
(PID.TID 0000.0001)                 1.547152638671146E+07,      /* J = 25 */
(PID.TID 0000.0001)                 1.546149967288220E+07,      /* J = 26 */
(PID.TID 0000.0001)                 1.545147241072469E+07,      /* J = 27 */
(PID.TID 0000.0001)                 1.544318236089779E+07       /* J = 28 */
(PID.TID 0000.0001)     ;
(PID.TID 0000.0001) rAs =  /* rAs(:,1,:,1) ( units: m^2 ) */
(PID.TID 0000.0001)   330 @  1.431409585161713E+07              /* I =  1:330 */
(PID.TID 0000.0001)     ;
(PID.TID 0000.0001) rAs =  /* rAs(1,:,1,:) ( units: m^2 ) */
(PID.TID 0000.0001)                 1.431409585161713E+07,      /* J =  1 */
(PID.TID 0000.0001)                 1.569334132646529E+07,      /* J =  2 */
(PID.TID 0000.0001)                 1.568421459236220E+07,      /* J =  3 */
(PID.TID 0000.0001)                 1.567464853779548E+07,      /* J =  4 */
(PID.TID 0000.0001)                 1.566508129518095E+07,      /* J =  5 */
(PID.TID 0000.0001)                 1.565595033345175E+07,      /* J =  6 */
(PID.TID 0000.0001)                 1.564638048044906E+07,      /* J =  7 */
(PID.TID 0000.0001)                 1.563680947081621E+07,      /* J =  8 */
(PID.TID 0000.0001)                 1.562767437398903E+07,      /* J =  9 */
(PID.TID 0000.0001)                 1.561810081601708E+07,      /* J = 10 */
(PID.TID 0000.0001)                 1.560852613273763E+07,      /* J = 11 */
(PID.TID 0000.0001)                 1.559895033469148E+07,      /* J = 12 */
(PID.TID 0000.0001)                 1.558980995703406E+07,      /* J = 13 */
(PID.TID 0000.0001)                 1.558023169331755E+07,      /* J = 14 */
(PID.TID 0000.0001)                 1.557065234602267E+07,      /* J = 15 */
(PID.TID 0000.0001)                 1.556150804841762E+07,      /* J = 16 */
(PID.TID 0000.0001)                 1.555192629706736E+07,      /* J = 17 */
(PID.TID 0000.0001)                 1.554234349323534E+07,      /* J = 18 */
(PID.TID 0000.0001)                 1.553275964738865E+07,      /* J = 19 */
(PID.TID 0000.0001)                 1.552317476996653E+07,      /* J = 20 */
(PID.TID 0000.0001)                 1.551358887140660E+07,      /* J = 21 */
(PID.TID 0000.0001)                 1.550443727811980E+07,      /* J = 22 */
(PID.TID 0000.0001)                 1.549484909883272E+07,      /* J = 23 */
(PID.TID 0000.0001)                 1.548525992931114E+07,      /* J = 24 */
(PID.TID 0000.0001)                 1.547610469102710E+07,      /* J = 25 */
(PID.TID 0000.0001)                 1.546651330181840E+07,      /* J = 26 */
(PID.TID 0000.0001)                 1.545648631260958E+07,      /* J = 27 */
(PID.TID 0000.0001)                 1.544732779090657E+07       /* J = 28 */
(PID.TID 0000.0001)     ;
(PID.TID 0000.0001) globalArea = /* Integrated horizontal Area (m^2) */
(PID.TID 0000.0001)                 1.130146430983160E+13
(PID.TID 0000.0001)     ;
(PID.TID 0000.0001) // =======================================================
(PID.TID 0000.0001) // End of Model config. summary
(PID.TID 0000.0001) // =======================================================
(PID.TID 0000.0001) 
(PID.TID 0000.0001) == Packages configuration : Check & print summary ==
(PID.TID 0000.0001) 
(PID.TID 0000.0001) OBCS_CHECK: #define ALLOW_OBCS
(PID.TID 0000.0001) OBCS_CHECK: start summary:
(PID.TID 0000.0001) useOBCSprescribe = /* prescribe OB values */
(PID.TID 0000.0001)                   T
(PID.TID 0000.0001)     ;
(PID.TID 0000.0001) useOBCSbalance = /* balance the flow through OB */
(PID.TID 0000.0001)                   T
(PID.TID 0000.0001)     ;
(PID.TID 0000.0001) OBCS_balanceFacN = /* Northern OB Factor for balancing OB flow [-] */
(PID.TID 0000.0001)                -1.000000000000000E+00
(PID.TID 0000.0001)     ;
(PID.TID 0000.0001) OBCS_balanceFacS = /* Southern OB Factor for balancing OB flow [-] */
(PID.TID 0000.0001)                -1.000000000000000E+00
(PID.TID 0000.0001)     ;
(PID.TID 0000.0001) OBCS_balanceFacE = /* Eastern  OB Factor for balancing OB flow [-] */
(PID.TID 0000.0001)                 1.000000000000000E+00
(PID.TID 0000.0001)     ;
(PID.TID 0000.0001) OBCS_balanceFacW = /* Western  OB Factor for balancing OB flow [-] */
(PID.TID 0000.0001)                 1.000000000000000E+00
(PID.TID 0000.0001)     ;
(PID.TID 0000.0001) OBCS_uvApplyFac = /* Factor to apply to U,V 2nd column/row */
(PID.TID 0000.0001)                 1.000000000000000E+00
(PID.TID 0000.0001)     ;
(PID.TID 0000.0001) OBCS_u1_adv_T = /* Temp uses upwind adv-scheme @ OB */
(PID.TID 0000.0001)                       1
(PID.TID 0000.0001)     ;
(PID.TID 0000.0001) OBCS_u1_adv_S = /* Salt uses upwind adv-scheme @ OB */
(PID.TID 0000.0001)                       1
(PID.TID 0000.0001)     ;
(PID.TID 0000.0001) OBCS_monitorFreq = /* monitor output frequency [s] */
(PID.TID 0000.0001)                 2.400000000000000E+02
(PID.TID 0000.0001)     ;
(PID.TID 0000.0001) OBCS_monSelect = /* select group of variables to monitor */
(PID.TID 0000.0001)                       3
(PID.TID 0000.0001)     ;
(PID.TID 0000.0001) useOBCStides = /* apply tidal forcing through OB */
(PID.TID 0000.0001)                   T
(PID.TID 0000.0001)     ;
(PID.TID 0000.0001) tidalPeriod = /* (s) */
(PID.TID 0000.0001)                 4.471416500000000E+04,      /* I =  1 */
(PID.TID 0000.0001)                 4.320000100000000E+04,      /* I =  2 */
(PID.TID 0000.0001)                 4.557005400000000E+04,      /* I =  3 */
(PID.TID 0000.0001)                 4.308205000000000E+04,      /* I =  4 */
(PID.TID 0000.0001)                 8.616407700000000E+04,      /* I =  5 */
(PID.TID 0000.0001)                 9.294963600000000E+04,      /* I =  6 */
(PID.TID 0000.0001)                 8.663720000000000E+04,      /* I =  7 */
(PID.TID 0000.0001)                 9.672608600000000E+04,      /* I =  8 */
(PID.TID 0000.0001)                 2.235709100000000E+04,      /* I =  9 */
(PID.TID 0000.0001)                 2.197202200000000E+04,      /* I = 10 */
(PID.TID 0000.0001)                 2.256904200000000E+04,      /* I = 11 */
(PID.TID 0000.0001)                 2.380715864000000E+06,      /* I = 12 */
(PID.TID 0000.0001)                 1.180295546000000E+06       /* I = 13 */
(PID.TID 0000.0001)     ;
(PID.TID 0000.0001) OB_indexNone = /* null value for OB index (i.e. no OB) */
(PID.TID 0000.0001)                     -99
(PID.TID 0000.0001)     ;
(PID.TID 0000.0001) ======== Tile bi=   1 , bj=   1 ========
(PID.TID 0000.0001)  OB_Jn = /* Northern OB local indices */
(PID.TID 0000.0001)    41 @      -99                            /* I = -3: 37 */
(PID.TID 0000.0001)  OB_Js = /* Southern OB local indices */
(PID.TID 0000.0001)     4 @      -99,                           /* I = -3:  0 */
(PID.TID 0000.0001)    33 @        2,                           /* I =  1: 33 */
(PID.TID 0000.0001)     3 @      -99,                           /* I = 34: 36 */
(PID.TID 0000.0001)                       2                     /* I = 37 */
(PID.TID 0000.0001)  OB_Ie = /* Eastern OB local indices */
(PID.TID 0000.0001)    36 @      -99                            /* J = -3: 32 */
(PID.TID 0000.0001)  OB_Iw = /* Western OB local indices */
(PID.TID 0000.0001)    36 @      -99                            /* J = -3: 32 */
(PID.TID 0000.0001) ======== Tile bi=   2 , bj=   1 ========
(PID.TID 0000.0001)  OB_Jn = /* Northern OB local indices */
(PID.TID 0000.0001)    41 @      -99                            /* I = -3: 37 */
(PID.TID 0000.0001)  OB_Js = /* Southern OB local indices */
(PID.TID 0000.0001)     4 @      -99,                           /* I = -3:  0 */
(PID.TID 0000.0001)    37 @        2                            /* I =  1: 37 */
(PID.TID 0000.0001)  OB_Ie = /* Eastern OB local indices */
(PID.TID 0000.0001)    36 @      -99                            /* J = -3: 32 */
(PID.TID 0000.0001)  OB_Iw = /* Western OB local indices */
(PID.TID 0000.0001)    36 @      -99                            /* J = -3: 32 */
(PID.TID 0000.0001) ======== Tile bi=   3 , bj=   1 ========
(PID.TID 0000.0001)  OB_Jn = /* Northern OB local indices */
(PID.TID 0000.0001)    41 @      -99                            /* I = -3: 37 */
(PID.TID 0000.0001)  OB_Js = /* Southern OB local indices */
(PID.TID 0000.0001)    41 @        2                            /* I = -3: 37 */
(PID.TID 0000.0001)  OB_Ie = /* Eastern OB local indices */
(PID.TID 0000.0001)    36 @      -99                            /* J = -3: 32 */
(PID.TID 0000.0001)  OB_Iw = /* Western OB local indices */
(PID.TID 0000.0001)    36 @      -99                            /* J = -3: 32 */
(PID.TID 0000.0001) ======== Tile bi=   4 , bj=   1 ========
(PID.TID 0000.0001)  OB_Jn = /* Northern OB local indices */
(PID.TID 0000.0001)    41 @      -99                            /* I = -3: 37 */
(PID.TID 0000.0001)  OB_Js = /* Southern OB local indices */
(PID.TID 0000.0001)     3 @      -99,                           /* I = -3: -1 */
(PID.TID 0000.0001)    38 @        2                            /* I =  0: 37 */
(PID.TID 0000.0001)  OB_Ie = /* Eastern OB local indices */
(PID.TID 0000.0001)    36 @      -99                            /* J = -3: 32 */
(PID.TID 0000.0001)  OB_Iw = /* Western OB local indices */
(PID.TID 0000.0001)    36 @      -99                            /* J = -3: 32 */
(PID.TID 0000.0001) ======== Tile bi=   5 , bj=   1 ========
(PID.TID 0000.0001)  OB_Jn = /* Northern OB local indices */
(PID.TID 0000.0001)    41 @      -99                            /* I = -3: 37 */
(PID.TID 0000.0001)  OB_Js = /* Southern OB local indices */
(PID.TID 0000.0001)    41 @        2                            /* I = -3: 37 */
(PID.TID 0000.0001)  OB_Ie = /* Eastern OB local indices */
(PID.TID 0000.0001)    36 @      -99                            /* J = -3: 32 */
(PID.TID 0000.0001)  OB_Iw = /* Western OB local indices */
(PID.TID 0000.0001)    36 @      -99                            /* J = -3: 32 */
(PID.TID 0000.0001) ======== Tile bi=   6 , bj=   1 ========
(PID.TID 0000.0001)  OB_Jn = /* Northern OB local indices */
(PID.TID 0000.0001)    41 @      -99                            /* I = -3: 37 */
(PID.TID 0000.0001)  OB_Js = /* Southern OB local indices */
(PID.TID 0000.0001)    41 @        2                            /* I = -3: 37 */
(PID.TID 0000.0001)  OB_Ie = /* Eastern OB local indices */
(PID.TID 0000.0001)    36 @      -99                            /* J = -3: 32 */
(PID.TID 0000.0001)  OB_Iw = /* Western OB local indices */
(PID.TID 0000.0001)    36 @      -99                            /* J = -3: 32 */
(PID.TID 0000.0001) ======== Tile bi=   7 , bj=   1 ========
(PID.TID 0000.0001)  OB_Jn = /* Northern OB local indices */
(PID.TID 0000.0001)    41 @      -99                            /* I = -3: 37 */
(PID.TID 0000.0001)  OB_Js = /* Southern OB local indices */
(PID.TID 0000.0001)    41 @        2                            /* I = -3: 37 */
(PID.TID 0000.0001)  OB_Ie = /* Eastern OB local indices */
(PID.TID 0000.0001)    36 @      -99                            /* J = -3: 32 */
(PID.TID 0000.0001)  OB_Iw = /* Western OB local indices */
(PID.TID 0000.0001)    36 @      -99                            /* J = -3: 32 */
(PID.TID 0000.0001) ======== Tile bi=   8 , bj=   1 ========
(PID.TID 0000.0001)  OB_Jn = /* Northern OB local indices */
(PID.TID 0000.0001)    41 @      -99                            /* I = -3: 37 */
(PID.TID 0000.0001)  OB_Js = /* Southern OB local indices */
(PID.TID 0000.0001)    41 @        2                            /* I = -3: 37 */
(PID.TID 0000.0001)  OB_Ie = /* Eastern OB local indices */
(PID.TID 0000.0001)    36 @      -99                            /* J = -3: 32 */
(PID.TID 0000.0001)  OB_Iw = /* Western OB local indices */
(PID.TID 0000.0001)    36 @      -99                            /* J = -3: 32 */
(PID.TID 0000.0001) ======== Tile bi=   9 , bj=   1 ========
(PID.TID 0000.0001)  OB_Jn = /* Northern OB local indices */
(PID.TID 0000.0001)    41 @      -99                            /* I = -3: 37 */
(PID.TID 0000.0001)  OB_Js = /* Southern OB local indices */
(PID.TID 0000.0001)    41 @        2                            /* I = -3: 37 */
(PID.TID 0000.0001)  OB_Ie = /* Eastern OB local indices */
(PID.TID 0000.0001)    36 @      -99                            /* J = -3: 32 */
(PID.TID 0000.0001)  OB_Iw = /* Western OB local indices */
(PID.TID 0000.0001)    36 @      -99                            /* J = -3: 32 */
(PID.TID 0000.0001) ======== Tile bi=  10 , bj=   1 ========
(PID.TID 0000.0001)  OB_Jn = /* Northern OB local indices */
(PID.TID 0000.0001)    41 @      -99                            /* I = -3: 37 */
(PID.TID 0000.0001)  OB_Js = /* Southern OB local indices */
(PID.TID 0000.0001)    41 @        2                            /* I = -3: 37 */
(PID.TID 0000.0001)  OB_Ie = /* Eastern OB local indices */
(PID.TID 0000.0001)    36 @      -99                            /* J = -3: 32 */
(PID.TID 0000.0001)  OB_Iw = /* Western OB local indices */
(PID.TID 0000.0001)    36 @      -99                            /* J = -3: 32 */
(PID.TID 0000.0001) OBCS_CHECK: end summary.
(PID.TID 0000.0001) OBCS_CHECK: set-up OK
(PID.TID 0000.0001) OBCS_CHECK: check Inside Mask and OB locations: OK
(PID.TID 0000.0001) KPP_CHECK: #define ALLOW_KPP
(PID.TID 0000.0001)  kpp_freq = /* frequency of KPP calculation */
(PID.TID 0000.0001)                 2.400000000000000E+02
(PID.TID 0000.0001)     ;
(PID.TID 0000.0001) KPP_ghatUseTotalDiffus= /* non-local term fct of total diffus */
(PID.TID 0000.0001)                   F
(PID.TID 0000.0001)     ;
(PID.TID 0000.0001) KPPuseDoubleDiff = /* include double diffusive contrib */
(PID.TID 0000.0001)                   F
(PID.TID 0000.0001)     ;
(PID.TID 0000.0001) LimitHblStable = /* limits depth of hbl if stable cond.*/
(PID.TID 0000.0001)                   T
(PID.TID 0000.0001)     ;
(PID.TID 0000.0001)  minKPPhbl = /* minimum KPPhbl value [m] */
(PID.TID 0000.0001)                 2.500000000000000E+00
(PID.TID 0000.0001)     ;
(PID.TID 0000.0001)  epsln     = /* constant [-] */
(PID.TID 0000.0001)                 9.999999999999999E-21
(PID.TID 0000.0001)     ;
(PID.TID 0000.0001)  phepsi    = /* constant [-] */
(PID.TID 0000.0001)                 1.000000000000000E-10
(PID.TID 0000.0001)     ;
(PID.TID 0000.0001)  epsilon   = /* constant [-] */
(PID.TID 0000.0001)                 1.000000000000000E-01
(PID.TID 0000.0001)     ;
(PID.TID 0000.0001)  vonk      = /* Von Karmans constant [-] */
(PID.TID 0000.0001)                 4.000000000000000E-01
(PID.TID 0000.0001)     ;
(PID.TID 0000.0001)  dB_dz     = /* maximum N^2 in mixed layer [s^-2] */
(PID.TID 0000.0001)                 5.200000000000000E-05
(PID.TID 0000.0001)     ;
(PID.TID 0000.0001)  conc1     = /* scalar constant [-] */
(PID.TID 0000.0001)                 5.000000000000000E+00
(PID.TID 0000.0001)     ;
(PID.TID 0000.0001)  conam     = /* scalar constant [-] */
(PID.TID 0000.0001)                 1.257000000000000E+00
(PID.TID 0000.0001)     ;
(PID.TID 0000.0001)  concm     = /* scalar constant [-] */
(PID.TID 0000.0001)                 8.380000000000001E+00
(PID.TID 0000.0001)     ;
(PID.TID 0000.0001)  conc2     = /* scalar constant [-] */
(PID.TID 0000.0001)                 1.600000000000000E+01
(PID.TID 0000.0001)     ;
(PID.TID 0000.0001)  conas     = /* scalar constant [-] */
(PID.TID 0000.0001)                -2.886000000000000E+01
(PID.TID 0000.0001)     ;
(PID.TID 0000.0001)  concs     = /* scalar constant [-] */
(PID.TID 0000.0001)                 9.895999999999999E+01
(PID.TID 0000.0001)     ;
(PID.TID 0000.0001)  conc3     = /* scalar constant [-] */
(PID.TID 0000.0001)                 1.600000000000000E+01
(PID.TID 0000.0001)     ;
(PID.TID 0000.0001)  zetam     = /* scalar constant [-] */
(PID.TID 0000.0001)                -2.000000000000000E-01
(PID.TID 0000.0001)     ;
(PID.TID 0000.0001)  zetas     = /* scalar constant [-] */
(PID.TID 0000.0001)                -1.000000000000000E+00
(PID.TID 0000.0001)     ;
(PID.TID 0000.0001)  Ricr      = /* critical bulk Richardson Number [-] */
(PID.TID 0000.0001)                 3.000000000000000E-01
(PID.TID 0000.0001)     ;
(PID.TID 0000.0001)  cekman    = /* coeff for Ekman depth [-] */
(PID.TID 0000.0001)                 7.000000000000000E-01
(PID.TID 0000.0001)     ;
(PID.TID 0000.0001)  cmonob    = /* coeff for Monin-Obukhov depth [-] */
(PID.TID 0000.0001)                 1.000000000000000E+00
(PID.TID 0000.0001)     ;
(PID.TID 0000.0001)  concv     = /* buoyancy freq ratio [-] */
(PID.TID 0000.0001)                 1.800000000000000E+00
(PID.TID 0000.0001)     ;
(PID.TID 0000.0001)  hbf       = /* solar radiation depth ratio [-] */
(PID.TID 0000.0001)                 1.000000000000000E+00
(PID.TID 0000.0001)     ;
(PID.TID 0000.0001)  zmin      = /* minimum for zehat in table [m3/s3] */
(PID.TID 0000.0001)                -4.000000000000000E-07
(PID.TID 0000.0001)     ;
(PID.TID 0000.0001)  zmax      = /* maximum for zehat in table [m3/s3] */
(PID.TID 0000.0001)                 0.000000000000000E+00
(PID.TID 0000.0001)     ;
(PID.TID 0000.0001)  umin      = /* minimum for ustar in table [m/s] */
(PID.TID 0000.0001)                 0.000000000000000E+00
(PID.TID 0000.0001)     ;
(PID.TID 0000.0001)  umax      = /* maximum for ustar in table [m/s] */
(PID.TID 0000.0001)                 4.000000000000000E-02
(PID.TID 0000.0001)     ;
(PID.TID 0000.0001) num_v_smooth_Ri = /* number of vertical smoothing */
(PID.TID 0000.0001)                       0
(PID.TID 0000.0001)     ;
(PID.TID 0000.0001)  Riinfty   = /* shear instability Ri number limit [-] */
(PID.TID 0000.0001)                 7.000000000000000E-01
(PID.TID 0000.0001)     ;
(PID.TID 0000.0001)  BVSQcon   = /* Brunt-Vaisala squared (=N^2) [s^-2] */
(PID.TID 0000.0001)                -2.000000000000000E-05
(PID.TID 0000.0001)     ;
(PID.TID 0000.0001)  difm0     = /* max viscosity from shear instab. [m2/s] */
(PID.TID 0000.0001)                 5.000000000000000E-03
(PID.TID 0000.0001)     ;
(PID.TID 0000.0001)  difs0     = /* max diffusiv. from shear instab. [m2/s] */
(PID.TID 0000.0001)                 5.000000000000000E-03
(PID.TID 0000.0001)     ;
(PID.TID 0000.0001)  dift0     = /* max diffusiv. from shear instab. [m2/s] */
(PID.TID 0000.0001)                 5.000000000000000E-03
(PID.TID 0000.0001)     ;
(PID.TID 0000.0001)  difmcon   = /* convective viscosity [m2/s] */
(PID.TID 0000.0001)                 1.000000000000000E-01
(PID.TID 0000.0001)     ;
(PID.TID 0000.0001)  difscon   = /* convective diffusiv. [m2/s] */
(PID.TID 0000.0001)                 1.000000000000000E-01
(PID.TID 0000.0001)     ;
(PID.TID 0000.0001)  diftcon   = /* convective diffusiv. [m2/s] */
(PID.TID 0000.0001)                 1.000000000000000E-01
(PID.TID 0000.0001)     ;
(PID.TID 0000.0001)  Rrho0     = /* double diffusion density ratio [-] */
(PID.TID 0000.0001)                 1.900000000000000E+00
(PID.TID 0000.0001)     ;
(PID.TID 0000.0001)  dsfmax    = /* max diffusiv. for salt fingering [m2/s] */
(PID.TID 0000.0001)                 1.000000000000000E-02
(PID.TID 0000.0001)     ;
(PID.TID 0000.0001)  cstar     = /* coeff for non-locak transport [-] */
(PID.TID 0000.0001)                 1.000000000000000E+01
(PID.TID 0000.0001)     ;
(PID.TID 0000.0001) KPPwriteState = /* write KPP fields to file */
(PID.TID 0000.0001)                   F
(PID.TID 0000.0001)     ;
(PID.TID 0000.0001)  kpp_dumpFreq = /* dump freq of KPP output */
(PID.TID 0000.0001)                 0.000000000000000E+00
(PID.TID 0000.0001)     ;
(PID.TID 0000.0001)  kpp_taveFreq = /* time-averaging freq of KPP output */
(PID.TID 0000.0001)                 0.000000000000000E+00
(PID.TID 0000.0001)     ;
(PID.TID 0000.0001) 
(PID.TID 0000.0001) EXF_CHECK: #define ALLOW_EXF
(PID.TID 0000.0001) GAD_CHECK: #define ALLOW_GENERIC_ADVDIFF
(PID.TID 0000.0001) // =======================================================
(PID.TID 0000.0001) // Check Model config. (CONFIG_CHECK):
(PID.TID 0000.0001) // CONFIG_CHECK : Normal End
(PID.TID 0000.0001) // =======================================================
(PID.TID 0000.0001) 
(PID.TID 0000.0001)  MDS_READ_FIELD: opening global file: U0_1815x532x100.bin
(PID.TID 0000.0001)  MDS_READ_FIELD: opening global file: V0_1815x532x100.bin
(PID.TID 0000.0001)  MDS_READ_FIELD: opening global file: T0_1815x532x100.bin
(PID.TID 0000.0001)  MDS_READ_FIELD: opening global file: S0_1815x532x100.bin
(PID.TID 0000.0001) Start initial hydrostatic pressure computation
(PID.TID 0000.0001) Pressure is predetermined for buoyancyRelation OCEANIC
(PID.TID 0000.0001) 
(PID.TID 0000.0001)  write diagnostics summary to file ioUnit:      6
Iter.Nb:         0 ; Time(s):  0.0000000000000E+00
------------------------------------------------------------------------
2D/3D diagnostics: Number of lists:     2
------------------------------------------------------------------------
listId=    1 ; file name: diags/surface
 nFlds, nActive,       freq     &     phase        , nLev               
    5  |    5  |      3600.000000         0.000000 |   1
 levels:   1
 diag# | name   |   ipt  |  iMate | kLev|   count |   mate.C|           
    23 |ETAN    |      1 |      0 |   1 |       0 |
    80 |oceTAUX |      2 |      3 |   1 |       0 |       0 |
    81 |oceTAUY |      3 |      2 |   1 |       0 |       0 |
   185 |EXFuwind|      4 |      0 |   1 |       0 |
   186 |EXFvwind|      5 |      0 |   1 |       0 |
------------------------------------------------------------------------
listId=    2 ; file name: diags/interior
 nFlds, nActive,       freq     &     phase        , nLev               
    9  |    9  |   2592000.000000         0.000000 | 100
 levels:   1   2   3   4   5   6   7   8   9  10  11  12  13  14  15  16  17  18  19  20  21  22  23  24  25
 levels:  26  27  28  29  30  31  32  33  34  35  36  37  38  39  40  41  42  43  44  45  46  47  48  49  50
 levels:  51  52  53  54  55  56  57  58  59  60  61  62  63  64  65  66  67  68  69  70  71  72  73  74  75
 levels:  76  77  78  79  80  81  82  83  84  85  86  87  88  89  90  91  92  93  94  95  96  97  98  99 100
 diag# | name   |   ipt  |  iMate | kLev|   count |   mate.C|           
    26 |THETA   |      6 |      0 | 100 |       0 |
    27 |SALT    |    106 |      0 | 100 |       0 |
    30 |UVEL    |    206 |    306 | 100 |       0 |       0 |
    31 |VVEL    |    306 |    206 | 100 |       0 |       0 |
    32 |WVEL    |    406 |      0 | 100 |       0 |
    36 |UVELSQ  |    506 |    606 | 100 |       0 |       0 |
    37 |VVELSQ  |    606 |    506 | 100 |       0 |       0 |
    52 |WTHMASS |    706 |      0 | 100 |       0 |
    55 |WSLTMASS|    806 |      0 | 100 |       0 |
------------------------------------------------------------------------
Global & Regional Statistics diagnostics: Number of lists:     0
------------------------------------------------------------------------
(PID.TID 0000.0001)  MDS_READ_SEC_XZ: opening global file: OBNvam_1815x13.bin
(PID.TID 0000.0001)  MDS_READ_SEC_XZ: opening global file: OBNvph_1815x13.bin
(PID.TID 0000.0001)  MDS_READ_SEC_XZ: opening global file: OBSvam_1815x13.bin
(PID.TID 0000.0001)  MDS_READ_SEC_XZ: opening global file: OBSvph_1815x13.bin
(PID.TID 0000.0001)  MDS_READ_SEC_YZ: opening global file: OBEuam_532x13.bin
(PID.TID 0000.0001)  MDS_READ_SEC_YZ: opening global file: OBEuph_532x13.bin
(PID.TID 0000.0001)  MDS_READ_SEC_XZ: opening global file: OBNu_1815x100x26.bin
(PID.TID 0000.0001)  MDS_READ_SEC_XZ: opening global file: OBNu_1815x100x26.bin
(PID.TID 0000.0001)  MDS_READ_SEC_XZ: opening global file: OBNv_1815x100x26.bin
(PID.TID 0000.0001)  MDS_READ_SEC_XZ: opening global file: OBNv_1815x100x26.bin
(PID.TID 0000.0001)  MDS_READ_SEC_XZ: opening global file: OBNt_1815x100x26.bin
(PID.TID 0000.0001)  MDS_READ_SEC_XZ: opening global file: OBNt_1815x100x26.bin
(PID.TID 0000.0001)  MDS_READ_SEC_XZ: opening global file: OBNs_1815x100x26.bin
(PID.TID 0000.0001)  MDS_READ_SEC_XZ: opening global file: OBNs_1815x100x26.bin
(PID.TID 0000.0001)  MDS_READ_SEC_XZ: opening global file: OBSu_1815x100x26.bin
(PID.TID 0000.0001)  MDS_READ_SEC_XZ: opening global file: OBSu_1815x100x26.bin
(PID.TID 0000.0001)  MDS_READ_SEC_XZ: opening global file: OBSv_1815x100x26.bin
(PID.TID 0000.0001)  MDS_READ_SEC_XZ: opening global file: OBSv_1815x100x26.bin
(PID.TID 0000.0001)  MDS_READ_SEC_XZ: opening global file: OBSt_1815x100x26.bin
(PID.TID 0000.0001)  MDS_READ_SEC_XZ: opening global file: OBSt_1815x100x26.bin
(PID.TID 0000.0001)  MDS_READ_SEC_XZ: opening global file: OBSs_1815x100x26.bin
(PID.TID 0000.0001)  MDS_READ_SEC_XZ: opening global file: OBSs_1815x100x26.bin
(PID.TID 0000.0001) // =======================================================
(PID.TID 0000.0001) // Model current state
(PID.TID 0000.0001) // =======================================================
(PID.TID 0000.0001) 
(PID.TID 0000.0001) // =======================================================
(PID.TID 0000.0001) // Begin MONITOR dynamic field statistics
(PID.TID 0000.0001) // =======================================================
(PID.TID 0000.0001) %MON time_tsnumber                =                     0
(PID.TID 0000.0001) %MON time_secondsf                =   0.0000000000000E+00
(PID.TID 0000.0001) %MON dynstat_eta_max              =   0.0000000000000E+00
(PID.TID 0000.0001) %MON dynstat_eta_min              =   0.0000000000000E+00
(PID.TID 0000.0001) %MON dynstat_eta_mean             =   0.0000000000000E+00
(PID.TID 0000.0001) %MON dynstat_eta_sd               =   0.0000000000000E+00
(PID.TID 0000.0001) %MON dynstat_eta_del2             =   0.0000000000000E+00
(PID.TID 0000.0001) %MON dynstat_uvel_max             =   1.2655940055847E+00
(PID.TID 0000.0001) %MON dynstat_uvel_min             =  -6.7179697751999E-01
(PID.TID 0000.0001) %MON dynstat_uvel_mean            =   3.8933782453988E-03
(PID.TID 0000.0001) %MON dynstat_uvel_sd              =   5.2086469330267E-02
(PID.TID 0000.0001) %MON dynstat_uvel_del2            =   3.0019794494441E-07
(PID.TID 0000.0001) %MON dynstat_vvel_max             =   1.7893446683884E+00
(PID.TID 0000.0001) %MON dynstat_vvel_min             =  -8.8630950450897E-01
(PID.TID 0000.0001) %MON dynstat_vvel_mean            =  -2.3266453276766E-04
(PID.TID 0000.0001) %MON dynstat_vvel_sd              =   4.8400506012704E-02
(PID.TID 0000.0001) %MON dynstat_vvel_del2            =   3.7451317241556E-07
(PID.TID 0000.0001) %MON dynstat_wvel_max             =   1.0522931164933E-01
(PID.TID 0000.0001) %MON dynstat_wvel_min             =  -8.1775501243237E-02
(PID.TID 0000.0001) %MON dynstat_wvel_mean            =  -1.0057682102191E-05
(PID.TID 0000.0001) %MON dynstat_wvel_sd              =   1.2872123759320E-03
(PID.TID 0000.0001) %MON dynstat_wvel_del2            =   3.4220863320645E-07
(PID.TID 0000.0001) %MON dynstat_theta_max            =   2.6144617080688E+01
(PID.TID 0000.0001) %MON dynstat_theta_min            =   1.4688636064529E+00
(PID.TID 0000.0001) %MON dynstat_theta_mean           =   5.5098811020492E+00
(PID.TID 0000.0001) %MON dynstat_theta_sd             =   4.7735348546541E+00
(PID.TID 0000.0001) %MON dynstat_theta_del2           =   4.0189244228803E-06
(PID.TID 0000.0001) %MON dynstat_salt_max             =   3.9185241699219E+01
(PID.TID 0000.0001) %MON dynstat_salt_min             =   3.3089591979980E+01
(PID.TID 0000.0001) %MON dynstat_salt_mean            =   3.5173374558495E+01
(PID.TID 0000.0001) %MON dynstat_salt_sd              =   3.7891790794923E-01
(PID.TID 0000.0001) %MON dynstat_salt_del2            =   4.9655867703385E-07
(PID.TID 0000.0001) %MON forcing_qnet_max             =   0.0000000000000E+00
(PID.TID 0000.0001) %MON forcing_qnet_min             =   0.0000000000000E+00
(PID.TID 0000.0001) %MON forcing_qnet_mean            =   0.0000000000000E+00
(PID.TID 0000.0001) %MON forcing_qnet_sd              =   0.0000000000000E+00
(PID.TID 0000.0001) %MON forcing_qnet_del2            =   0.0000000000000E+00
(PID.TID 0000.0001) %MON forcing_qsw_max              =   0.0000000000000E+00
(PID.TID 0000.0001) %MON forcing_qsw_min              =   0.0000000000000E+00
(PID.TID 0000.0001) %MON forcing_qsw_mean             =   0.0000000000000E+00
(PID.TID 0000.0001) %MON forcing_qsw_sd               =   0.0000000000000E+00
(PID.TID 0000.0001) %MON forcing_qsw_del2             =   0.0000000000000E+00
(PID.TID 0000.0001) %MON forcing_empmr_max            =   0.0000000000000E+00
(PID.TID 0000.0001) %MON forcing_empmr_min            =   0.0000000000000E+00
(PID.TID 0000.0001) %MON forcing_empmr_mean           =   0.0000000000000E+00
(PID.TID 0000.0001) %MON forcing_empmr_sd             =   0.0000000000000E+00
(PID.TID 0000.0001) %MON forcing_empmr_del2           =   0.0000000000000E+00
(PID.TID 0000.0001) %MON forcing_fu_max               =   0.0000000000000E+00
(PID.TID 0000.0001) %MON forcing_fu_min               =   0.0000000000000E+00
(PID.TID 0000.0001) %MON forcing_fu_mean              =   0.0000000000000E+00
(PID.TID 0000.0001) %MON forcing_fu_sd                =   0.0000000000000E+00
(PID.TID 0000.0001) %MON forcing_fu_del2              =   0.0000000000000E+00
(PID.TID 0000.0001) %MON forcing_fv_max               =   0.0000000000000E+00
(PID.TID 0000.0001) %MON forcing_fv_min               =   0.0000000000000E+00
(PID.TID 0000.0001) %MON forcing_fv_mean              =   0.0000000000000E+00
(PID.TID 0000.0001) %MON forcing_fv_sd                =   0.0000000000000E+00
(PID.TID 0000.0001) %MON forcing_fv_del2              =   0.0000000000000E+00
(PID.TID 0000.0001) %MON trAdv_CFL_u_max              =   0.0000000000000E+00
(PID.TID 0000.0001) %MON trAdv_CFL_v_max              =   0.0000000000000E+00
(PID.TID 0000.0001) %MON trAdv_CFL_w_max              =   0.0000000000000E+00
(PID.TID 0000.0001) %MON advcfl_uvel_max              =   7.6757822680034E-02
(PID.TID 0000.0001) %MON advcfl_vvel_max              =   1.1363552115820E-01
(PID.TID 0000.0001) %MON advcfl_wvel_max              =   1.0102013918336E+01
(PID.TID 0000.0001) %MON advcfl_W_hf_max              =   5.0361039470187E+00
(PID.TID 0000.0001) %MON pe_b_mean                    =   0.0000000000000E+00
(PID.TID 0000.0001) %MON ke_max                       =   1.6014653258787E+00
(PID.TID 0000.0001) %MON ke_mean                      =   2.5166577427137E-03
(PID.TID 0000.0001) %MON ke_vol                       =   4.5818637279721E+16
(PID.TID 0000.0001) %MON vort_r_min                   =  -2.7112786765354E-04
(PID.TID 0000.0001) %MON vort_r_max                   =   3.8229110732603E-04
(PID.TID 0000.0001) %MON vort_a_mean                  =   8.2147610909925E-05
(PID.TID 0000.0001) %MON vort_a_sd                    =   1.0110266430215E-05
(PID.TID 0000.0001) %MON vort_p_mean                  =   8.4848831818594E-05
(PID.TID 0000.0001) %MON vort_p_sd                    =   3.4983690225442E-05
(PID.TID 0000.0001) %MON surfExpan_theta_mean         =  -3.8419298406272E-04
(PID.TID 0000.0001) %MON surfExpan_salt_mean          =  -5.4326279644224E-04
(PID.TID 0000.0001) // =======================================================
(PID.TID 0000.0001) // End MONITOR dynamic field statistics
(PID.TID 0000.0001) // =======================================================
(PID.TID 0000.0001) // =======================================================
(PID.TID 0000.0001) // Begin OBCS MONITOR field statistics
(PID.TID 0000.0001) // =======================================================
(PID.TID 0000.0001) %MON obc_N_vVel_max               =   6.7814291719817E-01
(PID.TID 0000.0001) %MON obc_N_vVel_min               =  -6.8750834901040E-01
(PID.TID 0000.0001) %MON obc_N_vVel_mean              =  -5.6547594414000E-03
(PID.TID 0000.0001) %MON obc_N_vVel_sd                =   6.2727887280379E-02
(PID.TID 0000.0001) %MON obc_N_vVel_Int               =  -8.0948359019729E+07
(PID.TID 0000.0001) %MON obc_S_vVel_max               =   1.5852714596165E+00
(PID.TID 0000.0001) %MON obc_S_vVel_min               =  -2.5657059476458E-01
(PID.TID 0000.0001) %MON obc_S_vVel_mean              =  -8.1050269612588E-03
(PID.TID 0000.0001) %MON obc_S_vVel_sd                =   3.6962526840398E-02
(PID.TID 0000.0001) %MON obc_S_vVel_Int               =  -2.4674052262793E+08
(PID.TID 0000.0001) %MON obc_N_theta_max              =   1.6390861045164E+01
(PID.TID 0000.0001) %MON obc_N_theta_min              =   1.8895907269856E+00
(PID.TID 0000.0001) %MON obc_N_theta_mean             =   5.1589805018889E+00
(PID.TID 0000.0001) %MON obc_N_theta_sd               =   3.4827339404776E+00
(PID.TID 0000.0001) %MON obc_S_theta_max              =   2.5544941308807E+01
(PID.TID 0000.0001) %MON obc_S_theta_min              =   1.4632956408867E+00
(PID.TID 0000.0001) %MON obc_S_theta_mean             =   5.4595577802115E+00
(PID.TID 0000.0001) %MON obc_S_theta_sd               =   5.3559370357223E+00
(PID.TID 0000.0001) %MON obc_N_salt_max               =   3.5910867647958E+01
(PID.TID 0000.0001) %MON obc_N_salt_min               =   3.3295014070045E+01
(PID.TID 0000.0001) %MON obc_N_salt_mean              =   3.5114564316350E+01
(PID.TID 0000.0001) %MON obc_N_salt_sd                =   3.0984932953373E-01
(PID.TID 0000.0001) %MON obc_S_salt_max               =   3.7318346630621E+01
(PID.TID 0000.0001) %MON obc_S_salt_min               =   3.4844694313817E+01
(PID.TID 0000.0001) %MON obc_S_salt_mean              =   3.5168372938835E+01
(PID.TID 0000.0001) %MON obc_S_salt_sd                =   4.5717110791086E-01
(PID.TID 0000.0001) // =======================================================
(PID.TID 0000.0001) // End OBCS MONITOR field statistics
(PID.TID 0000.0001) // =======================================================
(PID.TID 0000.0001)  EXF_INTERP_READ: opening file: era_forcing/ERA5_u10m_2008
(PID.TID 0000.0001)  EXF_INTERP_READ: opening file: era_forcing/ERA5_v10m_2008
(PID.TID 0000.0001)  EXF_INTERP_UV: fileU="era_forcing/ERA5_u10m_2008", rec=     1 , x-Per,P.Sym=    T    T
(PID.TID 0000.0001)  S.edge (j=-1,0,1) : proc= 2.2 1.1 0.0, yIn=  -90.215115  -90.000000  -89.784885
(PID.TID 0000.0001)  N.edge (j=+0,+1,+2) proc= 0.0 1.1 2.2, yIn=   89.784885   90.000000   90.215115
(PID.TID 0000.0001)  EXF_INTERP_READ: opening file: era_forcing/ERA5_u10m_2008
(PID.TID 0000.0001)  EXF_INTERP_READ: opening file: era_forcing/ERA5_v10m_2008
(PID.TID 0000.0001)  EXF_INTERP_UV: fileU="era_forcing/ERA5_u10m_2008", rec=     2 , x-Per,P.Sym=    T    T
(PID.TID 0000.0001)  S.edge (j=-1,0,1) : proc= 2.2 1.1 0.0, yIn=  -90.215115  -90.000000  -89.784885
(PID.TID 0000.0001)  N.edge (j=+0,+1,+2) proc= 0.0 1.1 2.2, yIn=   89.784885   90.000000   90.215115
(PID.TID 0000.0001)  EXF_INTERP_READ: opening file: era_forcing/ERA5_tmp2m_degC_2008
(PID.TID 0000.0001)  EXF_INTERP: file="era_forcing/ERA5_tmp2m_degC_2008", rec=     1 , x-Per,P.Sym=    T    T
(PID.TID 0000.0001)  S.edge (j=-1,0,1) : proc= 2.2 1.1 0.0, yIn=  -90.215115  -90.000000  -89.784885
(PID.TID 0000.0001)  N.edge (j=+0,+1,+2) proc= 0.0 1.1 2.2, yIn=   89.784885   90.000000   90.215115
(PID.TID 0000.0001)  EXF_INTERP_READ: opening file: era_forcing/ERA5_tmp2m_degC_2008
(PID.TID 0000.0001)  EXF_INTERP: file="era_forcing/ERA5_tmp2m_degC_2008", rec=     2 , x-Per,P.Sym=    T    T
(PID.TID 0000.0001)  S.edge (j=-1,0,1) : proc= 2.2 1.1 0.0, yIn=  -90.215115  -90.000000  -89.784885
(PID.TID 0000.0001)  N.edge (j=+0,+1,+2) proc= 0.0 1.1 2.2, yIn=   89.784885   90.000000   90.215115
(PID.TID 0000.0001)  EXF_INTERP_READ: opening file: era_forcing/ERA5_spfh2m_2008
(PID.TID 0000.0001)  EXF_INTERP: file="era_forcing/ERA5_spfh2m_2008", rec=     1 , x-Per,P.Sym=    T    T
(PID.TID 0000.0001)  S.edge (j=-1,0,1) : proc= 2.2 1.1 0.0, yIn=  -90.215115  -90.000000  -89.784885
(PID.TID 0000.0001)  N.edge (j=+0,+1,+2) proc= 0.0 1.1 2.2, yIn=   89.784885   90.000000   90.215115
(PID.TID 0000.0001)  EXF_INTERP_READ: opening file: era_forcing/ERA5_spfh2m_2008
(PID.TID 0000.0001)  EXF_INTERP: file="era_forcing/ERA5_spfh2m_2008", rec=     2 , x-Per,P.Sym=    T    T
(PID.TID 0000.0001)  S.edge (j=-1,0,1) : proc= 2.2 1.1 0.0, yIn=  -90.215115  -90.000000  -89.784885
(PID.TID 0000.0001)  N.edge (j=+0,+1,+2) proc= 0.0 1.1 2.2, yIn=   89.784885   90.000000   90.215115
(PID.TID 0000.0001)  EXF_INTERP_READ: opening file: era_forcing/ERA5_rain_2007
(PID.TID 0000.0001)  EXF_INTERP: file="era_forcing/ERA5_rain_2007", rec=  8760 , x-Per,P.Sym=    T    T
(PID.TID 0000.0001)  S.edge (j=-1,0,1) : proc= 2.2 1.1 0.0, yIn=  -90.215115  -90.000000  -89.784885
(PID.TID 0000.0001)  N.edge (j=+0,+1,+2) proc= 0.0 1.1 2.2, yIn=   89.784885   90.000000   90.215115
(PID.TID 0000.0001)  EXF_INTERP_READ: opening file: era_forcing/ERA5_rain_2008
(PID.TID 0000.0001)  EXF_INTERP: file="era_forcing/ERA5_rain_2008", rec=     1 , x-Per,P.Sym=    T    T
(PID.TID 0000.0001)  S.edge (j=-1,0,1) : proc= 2.2 1.1 0.0, yIn=  -90.215115  -90.000000  -89.784885
(PID.TID 0000.0001)  N.edge (j=+0,+1,+2) proc= 0.0 1.1 2.2, yIn=   89.784885   90.000000   90.215115
(PID.TID 0000.0001)  EXF_INTERP_READ: opening file: era_forcing/ERA5_dsw_2007
(PID.TID 0000.0001)  EXF_INTERP: file="era_forcing/ERA5_dsw_2007", rec=  8760 , x-Per,P.Sym=    T    T
(PID.TID 0000.0001)  S.edge (j=-1,0,1) : proc= 2.2 1.1 0.0, yIn=  -90.215115  -90.000000  -89.784885
(PID.TID 0000.0001)  N.edge (j=+0,+1,+2) proc= 0.0 1.1 2.2, yIn=   89.784885   90.000000   90.215115
(PID.TID 0000.0001)  EXF_INTERP_READ: opening file: era_forcing/ERA5_dsw_2008
(PID.TID 0000.0001)  EXF_INTERP: file="era_forcing/ERA5_dsw_2008", rec=     1 , x-Per,P.Sym=    T    T
(PID.TID 0000.0001)  S.edge (j=-1,0,1) : proc= 2.2 1.1 0.0, yIn=  -90.215115  -90.000000  -89.784885
(PID.TID 0000.0001)  N.edge (j=+0,+1,+2) proc= 0.0 1.1 2.2, yIn=   89.784885   90.000000   90.215115
(PID.TID 0000.0001)  EXF_INTERP_READ: opening file: era_forcing/ERA5_dlw_2007
(PID.TID 0000.0001)  EXF_INTERP: file="era_forcing/ERA5_dlw_2007", rec=  8760 , x-Per,P.Sym=    T    T
(PID.TID 0000.0001)  S.edge (j=-1,0,1) : proc= 2.2 1.1 0.0, yIn=  -90.215115  -90.000000  -89.784885
(PID.TID 0000.0001)  N.edge (j=+0,+1,+2) proc= 0.0 1.1 2.2, yIn=   89.784885   90.000000   90.215115
(PID.TID 0000.0001)  EXF_INTERP_READ: opening file: era_forcing/ERA5_dlw_2008
(PID.TID 0000.0001)  EXF_INTERP: file="era_forcing/ERA5_dlw_2008", rec=     1 , x-Per,P.Sym=    T    T
(PID.TID 0000.0001)  S.edge (j=-1,0,1) : proc= 2.2 1.1 0.0, yIn=  -90.215115  -90.000000  -89.784885
(PID.TID 0000.0001)  N.edge (j=+0,+1,+2) proc= 0.0 1.1 2.2, yIn=   89.784885   90.000000   90.215115
(PID.TID 0000.0001)  EXF_INTERP_READ: opening file: era_forcing/ERA5_pres_2008
(PID.TID 0000.0001)  EXF_INTERP: file="era_forcing/ERA5_pres_2008", rec=     1 , x-Per,P.Sym=    T    T
(PID.TID 0000.0001)  S.edge (j=-1,0,1) : proc= 2.2 1.1 0.0, yIn=  -90.215115  -90.000000  -89.784885
(PID.TID 0000.0001)  N.edge (j=+0,+1,+2) proc= 0.0 1.1 2.2, yIn=   89.784885   90.000000   90.215115
(PID.TID 0000.0001)  EXF_INTERP_READ: opening file: era_forcing/ERA5_pres_2008
(PID.TID 0000.0001)  EXF_INTERP: file="era_forcing/ERA5_pres_2008", rec=     2 , x-Per,P.Sym=    T    T
(PID.TID 0000.0001)  S.edge (j=-1,0,1) : proc= 2.2 1.1 0.0, yIn=  -90.215115  -90.000000  -89.784885
(PID.TID 0000.0001)  N.edge (j=+0,+1,+2) proc= 0.0 1.1 2.2, yIn=   89.784885   90.000000   90.215115
(PID.TID 0000.0001)  EXF_INTERP_READ: opening file: tide_IAU_EARTH_2008
(PID.TID 0000.0001)  EXF_INTERP: file="tide_IAU_EARTH_2008", rec=     1 , x-Per,P.Sym=    T    T
(PID.TID 0000.0001)  S.edge (j=-1,0,1) : proc= 0.2 0.2 0.1, yIn=  -92.000000  -91.000000  -90.000000
(PID.TID 0000.0001)  N.edge (j=+0,+1,+2) proc= 0.1 0.2 0.2, yIn=   90.000000   91.000000   92.000000
(PID.TID 0000.0001)  EXF_INTERP_READ: opening file: tide_IAU_EARTH_2008
(PID.TID 0000.0001)  EXF_INTERP: file="tide_IAU_EARTH_2008", rec=     2 , x-Per,P.Sym=    T    T
(PID.TID 0000.0001)  S.edge (j=-1,0,1) : proc= 0.2 0.2 0.1, yIn=  -92.000000  -91.000000  -90.000000
(PID.TID 0000.0001)  N.edge (j=+0,+1,+2) proc= 0.1 0.2 0.2, yIn=   90.000000   91.000000   92.000000
(PID.TID 0000.0001)  EXF_INTERP_READ: opening file: runoff1p2472-360x180x12.bin
(PID.TID 0000.0001)  EXF_INTERP: file="runoff1p2472-360x180x12.bin", rec=    12 , x-Per,P.Sym=    T    T
(PID.TID 0000.0001)  S.edge (j=-1,0,1) : proc= 2.2 1.1 0.0, yIn=  -90.500000  -90.000000  -89.500000
(PID.TID 0000.0001)  N.edge (j=+0,+1,+2) proc= 0.0 1.1 2.2, yIn=   89.500000   90.000000   90.500000
(PID.TID 0000.0001)  EXF_INTERP_READ: opening file: runoff1p2472-360x180x12.bin
(PID.TID 0000.0001)  EXF_INTERP: file="runoff1p2472-360x180x12.bin", rec=     1 , x-Per,P.Sym=    T    T
(PID.TID 0000.0001)  S.edge (j=-1,0,1) : proc= 2.2 1.1 0.0, yIn=  -90.500000  -90.000000  -89.500000
(PID.TID 0000.0001)  N.edge (j=+0,+1,+2) proc= 0.0 1.1 2.2, yIn=   89.500000   90.000000   90.500000
(PID.TID 0000.0001) // =======================================================
(PID.TID 0000.0001) // Begin MONITOR EXF statistics
(PID.TID 0000.0001) // =======================================================
(PID.TID 0000.0001) %MON exf_tsnumber                 =                     0
(PID.TID 0000.0001) %MON exf_time_sec                 =   0.0000000000000E+00
(PID.TID 0000.0001) %MON exf_ustress_max              =   8.4406995937172E-01
(PID.TID 0000.0001) %MON exf_ustress_min              =  -4.3382394709471E-01
(PID.TID 0000.0001) %MON exf_ustress_mean             =   6.3244107811782E-02
(PID.TID 0000.0001) %MON exf_ustress_sd               =   1.5772626500198E-01
(PID.TID 0000.0001) %MON exf_ustress_del2             =   4.4509715512472E-07
(PID.TID 0000.0001) %MON exf_vstress_max              =   4.3288199583206E-01
(PID.TID 0000.0001) %MON exf_vstress_min              =  -5.7617635815828E-01
(PID.TID 0000.0001) %MON exf_vstress_mean             =   1.0767076931307E-02
(PID.TID 0000.0001) %MON exf_vstress_sd               =   1.0393227584056E-01
(PID.TID 0000.0001) %MON exf_vstress_del2             =   3.5305182955291E-07
(PID.TID 0000.0001) %MON exf_hflux_max                =   1.1426329991944E+03
(PID.TID 0000.0001) %MON exf_hflux_min                =  -2.5286213233087E+02
(PID.TID 0000.0001) %MON exf_hflux_mean               =   2.4640024363388E+02
(PID.TID 0000.0001) %MON exf_hflux_sd                 =   1.4494848252516E+02
(PID.TID 0000.0001) %MON exf_hflux_del2               =   1.1218465623096E-01
(PID.TID 0000.0001) %MON exf_sflux_max                =   2.6342200134154E-07
(PID.TID 0000.0001) %MON exf_sflux_min                =  -7.7122086946965E-07
(PID.TID 0000.0001) %MON exf_sflux_mean               =   1.0894783163073E-08
(PID.TID 0000.0001) %MON exf_sflux_sd                 =   9.8849583817352E-08
(PID.TID 0000.0001) %MON exf_sflux_del2               =   3.9006286704209E-11
(PID.TID 0000.0001) %MON exf_uwind_max                =   1.9606748338893E+01
(PID.TID 0000.0001) %MON exf_uwind_min                =  -1.5209100052697E+01
(PID.TID 0000.0001) %MON exf_uwind_mean               =   2.4660403514279E+00
(PID.TID 0000.0001) %MON exf_uwind_sd                 =   6.7030914983872E+00
(PID.TID 0000.0001) %MON exf_uwind_del2               =   2.8506324369397E-03
(PID.TID 0000.0001) %MON exf_vwind_max                =   1.4862500561074E+01
(PID.TID 0000.0001) %MON exf_vwind_min                =  -1.2850624390068E+01
(PID.TID 0000.0001) %MON exf_vwind_mean               =   8.4485498799724E-01
(PID.TID 0000.0001) %MON exf_vwind_sd                 =   5.2438302479895E+00
(PID.TID 0000.0001) %MON exf_vwind_del2               =   2.1097839207509E-03
(PID.TID 0000.0001) %MON exf_wspeed_max               =   2.0676576344075E+01
(PID.TID 0000.0001) %MON exf_wspeed_min               =   2.9018476250048E-03
(PID.TID 0000.0001) %MON exf_wspeed_mean              =   7.7680386146264E+00
(PID.TID 0000.0001) %MON exf_wspeed_sd                =   4.3453310981752E+00
(PID.TID 0000.0001) %MON exf_wspeed_del2              =   3.5460626269236E-03
(PID.TID 0000.0001) %MON exf_atemp_max                =   2.9817782416526E+02
(PID.TID 0000.0001) %MON exf_atemp_min                =   2.7455175867563E+02
(PID.TID 0000.0001) %MON exf_atemp_mean               =   2.9070214679347E+02
(PID.TID 0000.0001) %MON exf_atemp_sd                 =   3.9454298781272E+00
(PID.TID 0000.0001) %MON exf_atemp_del2               =   6.8498006926938E-03
(PID.TID 0000.0001) %MON exf_aqh_max                  =   1.6822475533329E-02
(PID.TID 0000.0001) %MON exf_aqh_min                  =   2.7400629324803E-03
(PID.TID 0000.0001) %MON exf_aqh_mean                 =   9.4287725015436E-03
(PID.TID 0000.0001) %MON exf_aqh_sd                   =   2.8741639256530E-03
(PID.TID 0000.0001) %MON exf_aqh_del2                 =   3.7536812242073E-06
(PID.TID 0000.0001) %MON exf_lwflux_max               =   1.5206774622875E+02
(PID.TID 0000.0001) %MON exf_lwflux_min               =   1.6673561113809E+01
(PID.TID 0000.0001) %MON exf_lwflux_mean              =   7.1263408871750E+01
(PID.TID 0000.0001) %MON exf_lwflux_sd                =   2.0933698112870E+01
(PID.TID 0000.0001) %MON exf_lwflux_del2              =   2.8556564443616E-02
(PID.TID 0000.0001) %MON exf_evap_max                 =   2.6993687419213E-07
(PID.TID 0000.0001) %MON exf_evap_min                 =  -9.0660349981682E-08
(PID.TID 0000.0001) %MON exf_evap_mean                =   5.9648131862514E-08
(PID.TID 0000.0001) %MON exf_evap_sd                  =   4.2509936668883E-08
(PID.TID 0000.0001) %MON exf_evap_del2                =   2.8749153271409E-11
(PID.TID 0000.0001) %MON exf_precip_max               =   9.4246541647784E-07
(PID.TID 0000.0001) %MON exf_precip_min               =   0.0000000000000E+00
(PID.TID 0000.0001) %MON exf_precip_mean              =   4.7164869294221E-08
(PID.TID 0000.0001) %MON exf_precip_sd                =   9.2958497283911E-08
(PID.TID 0000.0001) %MON exf_precip_del2              =   4.1544877787042E-11
(PID.TID 0000.0001) %MON exf_swflux_max               =   0.0000000000000E+00
(PID.TID 0000.0001) %MON exf_swflux_min               =   0.0000000000000E+00
(PID.TID 0000.0001) %MON exf_swflux_mean              =   0.0000000000000E+00
(PID.TID 0000.0001) %MON exf_swflux_sd                =   0.0000000000000E+00
(PID.TID 0000.0001) %MON exf_swflux_del2              =   0.0000000000000E+00
(PID.TID 0000.0001) %MON exf_swdown_max               =   0.0000000000000E+00
(PID.TID 0000.0001) %MON exf_swdown_min               =   0.0000000000000E+00
(PID.TID 0000.0001) %MON exf_swdown_mean              =   0.0000000000000E+00
(PID.TID 0000.0001) %MON exf_swdown_sd                =   0.0000000000000E+00
(PID.TID 0000.0001) %MON exf_swdown_del2              =   0.0000000000000E+00
(PID.TID 0000.0001) %MON exf_lwdown_max               =   3.9820518771429E+02
(PID.TID 0000.0001) %MON exf_lwdown_min               =   2.2735753040754E+02
(PID.TID 0000.0001) %MON exf_lwdown_mean              =   3.4365975552612E+02
(PID.TID 0000.0001) %MON exf_lwdown_sd                =   2.5519938563091E+01
(PID.TID 0000.0001) %MON exf_lwdown_del2              =   1.3287608044832E-01
(PID.TID 0000.0001) %MON exf_apressure_max            =   1.0278540583118E+05
(PID.TID 0000.0001) %MON exf_apressure_min            =   9.9972821377996E+04
(PID.TID 0000.0001) %MON exf_apressure_mean           =   1.0215907878038E+05
(PID.TID 0000.0001) %MON exf_apressure_sd             =   5.0098246938817E+02
(PID.TID 0000.0001) %MON exf_apressure_del2           =   3.9517258494995E+01
(PID.TID 0000.0001) %MON exf_runoff_max               =   4.4374791284855E-08
(PID.TID 0000.0001) %MON exf_runoff_min               =   0.0000000000000E+00
(PID.TID 0000.0001) %MON exf_runoff_mean              =   1.5884794052194E-09
(PID.TID 0000.0001) %MON exf_runoff_sd                =   5.3901957917178E-09
(PID.TID 0000.0001) %MON exf_runoff_del2              =   2.2191214937507E-12
(PID.TID 0000.0001) // =======================================================
(PID.TID 0000.0001) // End MONITOR EXF statistics
(PID.TID 0000.0001) // =======================================================
(PID.TID 0000.0001) SOLVE_FOR_PRESSURE: putPmEinXvector =    F
 cg2d: Sum(rhs),rhsMax =   9.66276227565577E+01  5.81917408346578E-01
(PID.TID 0000.0001)      cg2d_init_res =   1.50103925241265E+01
(PID.TID 0000.0001)      cg2d_iters(min,last) =      -1     324
(PID.TID 0000.0001)      cg2d_last_res =   6.66525284219758E-12
(PID.TID 0000.0001) // =======================================================
(PID.TID 0000.0001) // Begin MONITOR dynamic field statistics
(PID.TID 0000.0001) // =======================================================
(PID.TID 0000.0001) %MON time_tsnumber                =                     1
(PID.TID 0000.0001) %MON time_secondsf                =   2.4000000000000E+02
(PID.TID 0000.0001) %MON dynstat_eta_max              =   1.2814580624455E+00
(PID.TID 0000.0001) %MON dynstat_eta_min              =  -1.3568029513673E+00
(PID.TID 0000.0001) %MON dynstat_eta_mean             =  -3.2860253356296E-03
(PID.TID 0000.0001) %MON dynstat_eta_sd               =   5.9865893297071E-02
(PID.TID 0000.0001) %MON dynstat_eta_del2             =   7.7650339501877E-06
(PID.TID 0000.0001) %MON dynstat_uvel_max             =   1.2718059773127E+00
(PID.TID 0000.0001) %MON dynstat_uvel_min             =  -6.9993271560430E-01
(PID.TID 0000.0001) %MON dynstat_uvel_mean            =   3.8456150153082E-03
(PID.TID 0000.0001) %MON dynstat_uvel_sd              =   5.2155304192946E-02
(PID.TID 0000.0001) %MON dynstat_uvel_del2            =   4.4053150891399E-07
(PID.TID 0000.0001) %MON dynstat_vvel_max             =   1.7885916109559E+00
(PID.TID 0000.0001) %MON dynstat_vvel_min             =  -8.8816891487236E-01
(PID.TID 0000.0001) %MON dynstat_vvel_mean            =  -1.3556740595070E-03
(PID.TID 0000.0001) %MON dynstat_vvel_sd              =   4.8149766620182E-02
(PID.TID 0000.0001) %MON dynstat_vvel_del2            =   4.1770037711807E-07
(PID.TID 0000.0001) %MON dynstat_wvel_max             =   3.6299474349824E-02
(PID.TID 0000.0001) %MON dynstat_wvel_min             =  -3.3452207146908E-02
(PID.TID 0000.0001) %MON dynstat_wvel_mean            =  -9.4753758613671E-06
(PID.TID 0000.0001) %MON dynstat_wvel_sd              =   5.9365990794035E-04
(PID.TID 0000.0001) %MON dynstat_wvel_del2            =   9.0446756986257E-08
(PID.TID 0000.0001) %MON dynstat_theta_max            =   2.6141614471088E+01
(PID.TID 0000.0001) %MON dynstat_theta_min            =   1.4688637755250E+00
(PID.TID 0000.0001) %MON dynstat_theta_mean           =   5.5098896961721E+00
(PID.TID 0000.0001) %MON dynstat_theta_sd             =   4.7735459830096E+00
(PID.TID 0000.0001) %MON dynstat_theta_del2           =   4.0029637161888E-06
(PID.TID 0000.0001) %MON dynstat_salt_max             =   3.9184249639887E+01
(PID.TID 0000.0001) %MON dynstat_salt_min             =   3.3090163670678E+01
(PID.TID 0000.0001) %MON dynstat_salt_mean            =   3.5173375266751E+01
(PID.TID 0000.0001) %MON dynstat_salt_sd              =   3.7892122353147E-01
(PID.TID 0000.0001) %MON dynstat_salt_del2            =   4.9486405372386E-07
(PID.TID 0000.0001) %MON forcing_qnet_max             =   1.1600978682955E+03
(PID.TID 0000.0001) %MON forcing_qnet_min             =  -2.5825650999885E+02
(PID.TID 0000.0001) %MON forcing_qnet_mean            =   2.4794884485853E+02
(PID.TID 0000.0001) %MON forcing_qnet_sd              =   1.4819370151757E+02
(PID.TID 0000.0001) %MON forcing_qnet_del2            =   1.7132851726987E-03
(PID.TID 0000.0001) %MON forcing_qsw_max              =   0.0000000000000E+00
(PID.TID 0000.0001) %MON forcing_qsw_min              =   0.0000000000000E+00
(PID.TID 0000.0001) %MON forcing_qsw_mean             =   0.0000000000000E+00
(PID.TID 0000.0001) %MON forcing_qsw_sd               =   0.0000000000000E+00
(PID.TID 0000.0001) %MON forcing_qsw_del2             =   0.0000000000000E+00
(PID.TID 0000.0001) %MON forcing_empmr_max            =   2.6342200134154E-04
(PID.TID 0000.0001) %MON forcing_empmr_min            =  -7.7122086946965E-04
(PID.TID 0000.0001) %MON forcing_empmr_mean           =   1.0894783163073E-05
(PID.TID 0000.0001) %MON forcing_empmr_sd             =   9.8849583817352E-05
(PID.TID 0000.0001) %MON forcing_empmr_del2           =   2.4614800006331E-09
(PID.TID 0000.0001) %MON forcing_fu_max               =   8.4364485283337E-01
(PID.TID 0000.0001) %MON forcing_fu_min               =  -4.3374698396165E-01
(PID.TID 0000.0001) %MON forcing_fu_mean              =   6.3300287431143E-02
(PID.TID 0000.0001) %MON forcing_fu_sd                =   1.5778452727905E-01
(PID.TID 0000.0001) %MON forcing_fu_del2              =   4.1490864059874E-07
(PID.TID 0000.0001) %MON forcing_fv_max               =   4.3246026434874E-01
(PID.TID 0000.0001) %MON forcing_fv_min               =  -5.7712191511909E-01
(PID.TID 0000.0001) %MON forcing_fv_mean              =   1.0747312328533E-02
(PID.TID 0000.0001) %MON forcing_fv_sd                =   1.0405891487993E-01
(PID.TID 0000.0001) %MON forcing_fv_del2              =   3.3375013388588E-07
(PID.TID 0000.0001) %MON trAdv_CFL_u_max              =   7.7151467573602E-02
(PID.TID 0000.0001) %MON trAdv_CFL_v_max              =   1.1353566279207E-01
(PID.TID 0000.0001) %MON trAdv_CFL_w_max              =   6.5333714080382E-01
(PID.TID 0000.0001) %MON advcfl_uvel_max              =   7.7151466523115E-02
(PID.TID 0000.0001) %MON advcfl_vvel_max              =   1.1356909649520E-01
(PID.TID 0000.0001) %MON advcfl_wvel_max              =   6.5333714080382E-01
(PID.TID 0000.0001) %MON advcfl_W_hf_max              =   6.5333714080382E-01
(PID.TID 0000.0001) %MON pe_b_mean                    =  -7.6416553379318E-05
(PID.TID 0000.0001) %MON ke_max                       =   1.6066474928515E+00
(PID.TID 0000.0001) %MON ke_mean                      =   2.5088852212157E-03
(PID.TID 0000.0001) %MON ke_vol                       =   4.5818637279721E+16
(PID.TID 0000.0001) %MON vort_r_min                   =  -3.7712491366476E-04
(PID.TID 0000.0001) %MON vort_r_max                   =   4.1363960177131E-04
(PID.TID 0000.0001) %MON vort_a_mean                  =   8.2147611015477E-05
(PID.TID 0000.0001) %MON vort_a_sd                    =   1.0118933842715E-05
(PID.TID 0000.0001) %MON vort_p_mean                  =   8.4848831927617E-05
(PID.TID 0000.0001) %MON vort_p_sd                    =   3.4987139367763E-05
(PID.TID 0000.0001) %MON surfExpan_theta_mean         =  -2.8803192345320E-04
(PID.TID 0000.0001) %MON surfExpan_salt_mean          =  -4.9639039748052E-04
(PID.TID 0000.0001) // =======================================================
(PID.TID 0000.0001) // End MONITOR dynamic field statistics
(PID.TID 0000.0001) // =======================================================
(PID.TID 0000.0001) // =======================================================
(PID.TID 0000.0001) // Begin OBCS MONITOR field statistics
(PID.TID 0000.0001) // =======================================================
(PID.TID 0000.0001) %MON obc_N_vVel_max               =   6.7798595119496E-01
(PID.TID 0000.0001) %MON obc_N_vVel_min               =  -6.9241523054823E-01
(PID.TID 0000.0001) %MON obc_N_vVel_mean              =  -5.8118498326207E-03
(PID.TID 0000.0001) %MON obc_N_vVel_sd                =   6.2748919930453E-02
(PID.TID 0000.0001) %MON obc_N_vVel_Int               =  -8.3197121238327E+07
(PID.TID 0000.0001) %MON obc_S_vVel_max               =   1.5862506547891E+00
(PID.TID 0000.0001) %MON obc_S_vVel_min               =  -2.5644015709902E-01
(PID.TID 0000.0001) %MON obc_S_vVel_mean              =  -7.8157533944075E-03
(PID.TID 0000.0001) %MON obc_S_vVel_sd                =   3.6969674992112E-02
(PID.TID 0000.0001) %MON obc_S_vVel_Int               =  -2.3793419645425E+08
(PID.TID 0000.0001) %MON obc_N_theta_max              =   1.6390772942977E+01
(PID.TID 0000.0001) %MON obc_N_theta_min              =   1.8895907760510E+00
(PID.TID 0000.0001) %MON obc_N_theta_mean             =   5.1589731177388E+00
(PID.TID 0000.0001) %MON obc_N_theta_sd               =   3.4827246474693E+00
(PID.TID 0000.0001) %MON obc_S_theta_max              =   2.5544838560027E+01
(PID.TID 0000.0001) %MON obc_S_theta_min              =   1.4632960371739E+00
(PID.TID 0000.0001) %MON obc_S_theta_mean             =   5.4595569751869E+00
(PID.TID 0000.0001) %MON obc_S_theta_sd               =   5.3559331643597E+00
(PID.TID 0000.0001) %MON obc_N_salt_max               =   3.5910867239595E+01
(PID.TID 0000.0001) %MON obc_N_salt_min               =   3.3295019572678E+01
(PID.TID 0000.0001) %MON obc_N_salt_mean              =   3.5114564020364E+01
(PID.TID 0000.0001) %MON obc_N_salt_sd                =   3.0984921004648E-01
(PID.TID 0000.0001) %MON obc_S_salt_max               =   3.7318339746237E+01
(PID.TID 0000.0001) %MON obc_S_salt_min               =   3.4844694366037E+01
(PID.TID 0000.0001) %MON obc_S_salt_mean              =   3.5168372866918E+01
(PID.TID 0000.0001) %MON obc_S_salt_sd                =   4.5717075679099E-01
(PID.TID 0000.0001) // =======================================================
(PID.TID 0000.0001) // End OBCS MONITOR field statistics
(PID.TID 0000.0001) // =======================================================
(PID.TID 0000.0001) // =======================================================
(PID.TID 0000.0001) // Begin MONITOR EXF statistics
(PID.TID 0000.0001) // =======================================================
(PID.TID 0000.0001) %MON exf_tsnumber                 =                     1
(PID.TID 0000.0001) %MON exf_time_sec                 =   2.4000000000000E+02
(PID.TID 0000.0001) %MON exf_ustress_max              =   8.3847303346046E-01
(PID.TID 0000.0001) %MON exf_ustress_min              =  -4.2947457646377E-01
(PID.TID 0000.0001) %MON exf_ustress_mean             =   6.3102095396374E-02
(PID.TID 0000.0001) %MON exf_ustress_sd               =   1.5693731756358E-01
(PID.TID 0000.0001) %MON exf_ustress_del2             =   4.3606462600600E-07
(PID.TID 0000.0001) %MON exf_vstress_max              =   4.1921406659859E-01
(PID.TID 0000.0001) %MON exf_vstress_min              =  -5.7235238855919E-01
(PID.TID 0000.0001) %MON exf_vstress_mean             =   1.0727069933330E-02
(PID.TID 0000.0001) %MON exf_vstress_sd               =   1.0321918771076E-01
(PID.TID 0000.0001) %MON exf_vstress_del2             =   3.2678601929286E-07
(PID.TID 0000.0001) %MON exf_hflux_max                =   1.1414717806852E+03
(PID.TID 0000.0001) %MON exf_hflux_min                =  -2.5657157885389E+02
(PID.TID 0000.0001) %MON exf_hflux_mean               =   2.4534394024821E+02
(PID.TID 0000.0001) %MON exf_hflux_sd                 =   1.4398743658938E+02
(PID.TID 0000.0001) %MON exf_hflux_del2               =   1.1163450115820E-01
(PID.TID 0000.0001) %MON exf_sflux_max                =   2.6217825064295E-07
(PID.TID 0000.0001) %MON exf_sflux_min                =  -8.9634406318673E-07
(PID.TID 0000.0001) %MON exf_sflux_mean               =   1.1723619797083E-08
(PID.TID 0000.0001) %MON exf_sflux_sd                 =   9.9262519446454E-08
(PID.TID 0000.0001) %MON exf_sflux_del2               =   3.9326030389295E-11
(PID.TID 0000.0001) %MON exf_uwind_max                =   1.9557075789708E+01
(PID.TID 0000.0001) %MON exf_uwind_min                =  -1.5157020212895E+01
(PID.TID 0000.0001) %MON exf_uwind_mean               =   2.4665532766370E+00
(PID.TID 0000.0001) %MON exf_uwind_sd                 =   6.6942617422359E+00
(PID.TID 0000.0001) %MON exf_uwind_del2               =   2.8473651668362E-03
(PID.TID 0000.0001) %MON exf_vwind_max                =   1.4720208672635E+01
(PID.TID 0000.0001) %MON exf_vwind_min                =  -1.2825598221223E+01
(PID.TID 0000.0001) %MON exf_vwind_mean               =   8.4719986099551E-01
(PID.TID 0000.0001) %MON exf_vwind_sd                 =   5.2291384636244E+00
(PID.TID 0000.0001) %MON exf_vwind_del2               =   2.1044105862715E-03
(PID.TID 0000.0001) %MON exf_wspeed_max               =   2.0599869992538E+01
(PID.TID 0000.0001) %MON exf_wspeed_min               =   1.3974432123589E-02
(PID.TID 0000.0001) %MON exf_wspeed_mean              =   7.7556701397973E+00
(PID.TID 0000.0001) %MON exf_wspeed_sd                =   4.3368470919476E+00
(PID.TID 0000.0001) %MON exf_wspeed_del2              =   3.5402630103919E-03
(PID.TID 0000.0001) %MON exf_atemp_max                =   2.9817562687684E+02
(PID.TID 0000.0001) %MON exf_atemp_min                =   2.7452615746699E+02
(PID.TID 0000.0001) %MON exf_atemp_mean               =   2.9069902558728E+02
(PID.TID 0000.0001) %MON exf_atemp_sd                 =   3.9447514879437E+00
(PID.TID 0000.0001) %MON exf_atemp_del2               =   6.8485074445547E-03
(PID.TID 0000.0001) %MON exf_aqh_max                  =   1.6815489232455E-02
(PID.TID 0000.0001) %MON exf_aqh_min                  =   2.7377682347164E-03
(PID.TID 0000.0001) %MON exf_aqh_mean                 =   9.4275843487295E-03
(PID.TID 0000.0001) %MON exf_aqh_sd                   =   2.8734848400241E-03
(PID.TID 0000.0001) %MON exf_aqh_del2                 =   3.7530606925921E-06
(PID.TID 0000.0001) %MON exf_lwflux_max               =   1.5159279032158E+02
(PID.TID 0000.0001) %MON exf_lwflux_min               =   1.6653091575544E+01
(PID.TID 0000.0001) %MON exf_lwflux_mean              =   7.0480750622388E+01
(PID.TID 0000.0001) %MON exf_lwflux_sd                =   2.0882645271143E+01
(PID.TID 0000.0001) %MON exf_lwflux_del2              =   2.8253313649604E-02
(PID.TID 0000.0001) %MON exf_evap_max                 =   2.6944457882244E-07
(PID.TID 0000.0001) %MON exf_evap_min                 =  -9.1095327078040E-08
(PID.TID 0000.0001) %MON exf_evap_mean                =   5.9553102667675E-08
(PID.TID 0000.0001) %MON exf_evap_sd                  =   4.2381776952333E-08
(PID.TID 0000.0001) %MON exf_evap_del2                =   2.8692912331416E-11
(PID.TID 0000.0001) %MON exf_precip_max               =   1.0681274720082E-06
(PID.TID 0000.0001) %MON exf_precip_min               =   0.0000000000000E+00
(PID.TID 0000.0001) %MON exf_precip_mean              =   4.6241003465373E-08
(PID.TID 0000.0001) %MON exf_precip_sd                =   9.5180213938007E-08
(PID.TID 0000.0001) %MON exf_precip_del2              =   4.2339359514858E-11
(PID.TID 0000.0001) %MON exf_swflux_max               =   0.0000000000000E+00
(PID.TID 0000.0001) %MON exf_swflux_min               =   0.0000000000000E+00
(PID.TID 0000.0001) %MON exf_swflux_mean              =   0.0000000000000E+00
(PID.TID 0000.0001) %MON exf_swflux_sd                =   0.0000000000000E+00
(PID.TID 0000.0001) %MON exf_swflux_del2              =   0.0000000000000E+00
(PID.TID 0000.0001) %MON exf_swdown_max               =   0.0000000000000E+00
(PID.TID 0000.0001) %MON exf_swdown_min               =   0.0000000000000E+00
(PID.TID 0000.0001) %MON exf_swdown_mean              =   0.0000000000000E+00
(PID.TID 0000.0001) %MON exf_swdown_sd                =   0.0000000000000E+00
(PID.TID 0000.0001) %MON exf_swdown_del2              =   0.0000000000000E+00
(PID.TID 0000.0001) %MON exf_lwdown_max               =   3.9865640868250E+02
(PID.TID 0000.0001) %MON exf_lwdown_min               =   2.2781411885010E+02
(PID.TID 0000.0001) %MON exf_lwdown_mean              =   3.4445380950638E+02
(PID.TID 0000.0001) %MON exf_lwdown_sd                =   2.5672720097867E+01
(PID.TID 0000.0001) %MON exf_lwdown_del2              =   1.3319097134729E-01
(PID.TID 0000.0001) %MON exf_apressure_max            =   1.0278691686358E+05
(PID.TID 0000.0001) %MON exf_apressure_min            =   9.9978539078627E+04
(PID.TID 0000.0001) %MON exf_apressure_mean           =   1.0215985608694E+05
(PID.TID 0000.0001) %MON exf_apressure_sd             =   5.0058207786859E+02
(PID.TID 0000.0001) %MON exf_apressure_del2           =   3.9517565334831E+01
(PID.TID 0000.0001) %MON exf_runoff_max               =   4.4374791284855E-08
(PID.TID 0000.0001) %MON exf_runoff_min               =   0.0000000000000E+00
(PID.TID 0000.0001) %MON exf_runoff_mean              =   1.5884794052194E-09
(PID.TID 0000.0001) %MON exf_runoff_sd                =   5.3901957917178E-09
(PID.TID 0000.0001) %MON exf_runoff_del2              =   2.2191214937507E-12
(PID.TID 0000.0001) // =======================================================
(PID.TID 0000.0001) // End MONITOR EXF statistics
(PID.TID 0000.0001) // =======================================================
 cg2d: Sum(rhs),rhsMax =   1.86236377953849E+02  1.13395085288353E-01
(PID.TID 0000.0001)      cg2d_init_res =   1.34637241011778E+01
(PID.TID 0000.0001)      cg2d_iters(min,last) =      -1     322
(PID.TID 0000.0001)      cg2d_last_res =   6.98743381500327E-12
(PID.TID 0000.0001) // =======================================================
(PID.TID 0000.0001) // Begin MONITOR dynamic field statistics
(PID.TID 0000.0001) // =======================================================
(PID.TID 0000.0001) %MON time_tsnumber                =                     2
(PID.TID 0000.0001) %MON time_secondsf                =   4.8000000000000E+02
(PID.TID 0000.0001) %MON dynstat_eta_max              =   1.4940328004727E+00
(PID.TID 0000.0001) %MON dynstat_eta_min              =  -1.1914626063067E+00
(PID.TID 0000.0001) %MON dynstat_eta_mean             =  -6.3333593326004E-03
(PID.TID 0000.0001) %MON dynstat_eta_sd               =   8.7598056666208E-02
(PID.TID 0000.0001) %MON dynstat_eta_del2             =   3.3725754396635E-06
(PID.TID 0000.0001) %MON dynstat_uvel_max             =   1.2822075693846E+00
(PID.TID 0000.0001) %MON dynstat_uvel_min             =  -7.0565323789499E-01
(PID.TID 0000.0001) %MON dynstat_uvel_mean            =   3.7432005875690E-03
(PID.TID 0000.0001) %MON dynstat_uvel_sd              =   5.2260415581600E-02
(PID.TID 0000.0001) %MON dynstat_uvel_del2            =   4.6131714672636E-07
(PID.TID 0000.0001) %MON dynstat_vvel_max             =   1.7991768566253E+00
(PID.TID 0000.0001) %MON dynstat_vvel_min             =  -8.9318075484651E-01
(PID.TID 0000.0001) %MON dynstat_vvel_mean            =  -2.4401255493527E-03
(PID.TID 0000.0001) %MON dynstat_vvel_sd              =   4.8053200566643E-02
(PID.TID 0000.0001) %MON dynstat_vvel_del2            =   4.2895570250032E-07
(PID.TID 0000.0001) %MON dynstat_wvel_max             =   3.7564521062175E-02
(PID.TID 0000.0001) %MON dynstat_wvel_min             =  -3.2825828879097E-02
(PID.TID 0000.0001) %MON dynstat_wvel_mean            =  -8.8817560737838E-06
(PID.TID 0000.0001) %MON dynstat_wvel_sd              =   5.8317627886782E-04
(PID.TID 0000.0001) %MON dynstat_wvel_del2            =   9.0233754094168E-08
(PID.TID 0000.0001) %MON dynstat_theta_max            =   2.6141386988553E+01
(PID.TID 0000.0001) %MON dynstat_theta_min            =   1.4688639451488E+00
(PID.TID 0000.0001) %MON dynstat_theta_mean           =   5.5098951248425E+00
(PID.TID 0000.0001) %MON dynstat_theta_sd             =   4.7735487781443E+00
(PID.TID 0000.0001) %MON dynstat_theta_del2           =   3.9939725274645E-06
(PID.TID 0000.0001) %MON dynstat_salt_max             =   3.9182777431591E+01
(PID.TID 0000.0001) %MON dynstat_salt_min             =   3.3090724264178E+01
(PID.TID 0000.0001) %MON dynstat_salt_mean            =   3.5173375579834E+01
(PID.TID 0000.0001) %MON dynstat_salt_sd              =   3.7892336946136E-01
(PID.TID 0000.0001) %MON dynstat_salt_del2            =   4.9499290247969E-07
(PID.TID 0000.0001) %MON forcing_qnet_max             =   1.1590194079481E+03
(PID.TID 0000.0001) %MON forcing_qnet_min             =  -2.6186891731521E+02
(PID.TID 0000.0001) %MON forcing_qnet_mean            =   2.4696682999290E+02
(PID.TID 0000.0001) %MON forcing_qnet_sd              =   1.4698753208342E+02
(PID.TID 0000.0001) %MON forcing_qnet_del2            =   1.7025436057148E-03
(PID.TID 0000.0001) %MON forcing_qsw_max              =   0.0000000000000E+00
(PID.TID 0000.0001) %MON forcing_qsw_min              =   0.0000000000000E+00
(PID.TID 0000.0001) %MON forcing_qsw_mean             =   0.0000000000000E+00
(PID.TID 0000.0001) %MON forcing_qsw_sd               =   0.0000000000000E+00
(PID.TID 0000.0001) %MON forcing_qsw_del2             =   0.0000000000000E+00
(PID.TID 0000.0001) %MON forcing_empmr_max            =   2.6217825064295E-04
(PID.TID 0000.0001) %MON forcing_empmr_min            =  -8.9634406318673E-04
(PID.TID 0000.0001) %MON forcing_empmr_mean           =   1.1723619797083E-05
(PID.TID 0000.0001) %MON forcing_empmr_sd             =   9.9262519446453E-05
(PID.TID 0000.0001) %MON forcing_empmr_del2           =   2.4829962302214E-09
(PID.TID 0000.0001) %MON forcing_fu_max               =   8.3771166576092E-01
(PID.TID 0000.0001) %MON forcing_fu_min               =  -4.2944514510595E-01
(PID.TID 0000.0001) %MON forcing_fu_mean              =   6.3158555578565E-02
(PID.TID 0000.0001) %MON forcing_fu_sd                =   1.5699582026583E-01
(PID.TID 0000.0001) %MON forcing_fu_del2              =   3.9854510755451E-07
(PID.TID 0000.0001) %MON forcing_fv_max               =   4.1893219591531E-01
(PID.TID 0000.0001) %MON forcing_fv_min               =  -5.7420052412531E-01
(PID.TID 0000.0001) %MON forcing_fv_mean              =   1.0707495435271E-02
(PID.TID 0000.0001) %MON forcing_fv_sd                =   1.0334695016923E-01
(PID.TID 0000.0001) %MON forcing_fv_del2              =   3.0705644099900E-07
(PID.TID 0000.0001) %MON trAdv_CFL_u_max              =   7.7792511421290E-02
(PID.TID 0000.0001) %MON trAdv_CFL_v_max              =   1.1415588415210E-01
(PID.TID 0000.0001) %MON trAdv_CFL_w_max              =   5.1783473570625E-01
(PID.TID 0000.0001) %MON advcfl_uvel_max              =   7.7792510362075E-02
(PID.TID 0000.0001) %MON advcfl_vvel_max              =   1.1418945040744E-01
(PID.TID 0000.0001) %MON advcfl_wvel_max              =   5.1937133729588E-01
(PID.TID 0000.0001) %MON advcfl_W_hf_max              =   5.2091708532355E-01
(PID.TID 0000.0001) %MON pe_b_mean                    =  -1.4629746090390E-04
(PID.TID 0000.0001) %MON ke_max                       =   1.6218300655150E+00
(PID.TID 0000.0001) %MON ke_mean                      =   2.5113743097675E-03
(PID.TID 0000.0001) %MON ke_vol                       =   4.5818637279721E+16
(PID.TID 0000.0001) %MON vort_r_min                   =  -4.3549511744620E-04
(PID.TID 0000.0001) %MON vort_r_max                   =   4.3731813752704E-04
(PID.TID 0000.0001) %MON vort_a_mean                  =   8.2147611136780E-05
(PID.TID 0000.0001) %MON vort_a_sd                    =   1.0121839426717E-05
(PID.TID 0000.0001) %MON vort_p_mean                  =   8.4848832052908E-05
(PID.TID 0000.0001) %MON vort_p_sd                    =   3.4987412456379E-05
(PID.TID 0000.0001) %MON surfExpan_theta_mean         =  -2.2871182909266E-04
(PID.TID 0000.0001) %MON surfExpan_salt_mean          =  -4.5466177672176E-04
(PID.TID 0000.0001) // =======================================================
(PID.TID 0000.0001) // End MONITOR dynamic field statistics
(PID.TID 0000.0001) // =======================================================
(PID.TID 0000.0001) // =======================================================
(PID.TID 0000.0001) // Begin OBCS MONITOR field statistics
(PID.TID 0000.0001) // =======================================================
(PID.TID 0000.0001) %MON obc_N_vVel_max               =   6.7783315457579E-01
(PID.TID 0000.0001) %MON obc_N_vVel_min               =  -6.9666785147388E-01
(PID.TID 0000.0001) %MON obc_N_vVel_mean              =  -5.9617752458977E-03
(PID.TID 0000.0001) %MON obc_N_vVel_sd                =   6.2767996439213E-02
(PID.TID 0000.0001) %MON obc_N_vVel_Int               =  -8.5343316192489E+07
(PID.TID 0000.0001) %MON obc_S_vVel_max               =   1.5872089521186E+00
(PID.TID 0000.0001) %MON obc_S_vVel_min               =  -2.5631100904566E-01
(PID.TID 0000.0001) %MON obc_S_vVel_mean              =  -7.5170418613177E-03
(PID.TID 0000.0001) %MON obc_S_vVel_sd                =   3.6975560510072E-02
(PID.TID 0000.0001) %MON obc_S_vVel_Int               =  -2.2884055122125E+08
(PID.TID 0000.0001) %MON obc_N_theta_max              =   1.6390684840790E+01
(PID.TID 0000.0001) %MON obc_N_theta_min              =   1.8895908251163E+00
(PID.TID 0000.0001) %MON obc_N_theta_mean             =   5.1589657335888E+00
(PID.TID 0000.0001) %MON obc_N_theta_sd               =   3.4827153546990E+00
(PID.TID 0000.0001) %MON obc_S_theta_max              =   2.5544735811248E+01
(PID.TID 0000.0001) %MON obc_S_theta_min              =   1.4632964334612E+00
(PID.TID 0000.0001) %MON obc_S_theta_mean             =   5.4595561701623E+00
(PID.TID 0000.0001) %MON obc_S_theta_sd               =   5.3559292930331E+00
(PID.TID 0000.0001) %MON obc_N_salt_max               =   3.5910866831232E+01
(PID.TID 0000.0001) %MON obc_N_salt_min               =   3.3295025075312E+01
(PID.TID 0000.0001) %MON obc_N_salt_mean              =   3.5114563724377E+01
(PID.TID 0000.0001) %MON obc_N_salt_sd                =   3.0984909059289E-01
(PID.TID 0000.0001) %MON obc_S_salt_max               =   3.7318332861853E+01
(PID.TID 0000.0001) %MON obc_S_salt_min               =   3.4844694418258E+01
(PID.TID 0000.0001) %MON obc_S_salt_mean              =   3.5168372795001E+01
(PID.TID 0000.0001) %MON obc_S_salt_sd                =   4.5717040568239E-01
(PID.TID 0000.0001) // =======================================================
(PID.TID 0000.0001) // End OBCS MONITOR field statistics
(PID.TID 0000.0001) // =======================================================
(PID.TID 0000.0001) // =======================================================
(PID.TID 0000.0001) // Begin MONITOR EXF statistics
(PID.TID 0000.0001) // =======================================================
(PID.TID 0000.0001) %MON exf_tsnumber                 =                     2
(PID.TID 0000.0001) %MON exf_time_sec                 =   4.8000000000000E+02
(PID.TID 0000.0001) %MON exf_ustress_max              =   8.3822413274577E-01
(PID.TID 0000.0001) %MON exf_ustress_min              =  -4.2580843256238E-01
(PID.TID 0000.0001) %MON exf_ustress_mean             =   6.3014864535478E-02
(PID.TID 0000.0001) %MON exf_ustress_sd               =   1.5631867845242E-01
(PID.TID 0000.0001) %MON exf_ustress_del2             =   4.2109686819735E-07
(PID.TID 0000.0001) %MON exf_vstress_max              =   4.0927163382237E-01
(PID.TID 0000.0001) %MON exf_vstress_min              =  -5.6941929551316E-01
(PID.TID 0000.0001) %MON exf_vstress_mean             =   1.0706913043064E-02
(PID.TID 0000.0001) %MON exf_vstress_sd               =   1.0265703755360E-01
(PID.TID 0000.0001) %MON exf_vstress_del2             =   3.0598078614180E-07
(PID.TID 0000.0001) %MON exf_hflux_max                =   1.1410650124612E+03
(PID.TID 0000.0001) %MON exf_hflux_min                =  -2.6037405340746E+02
(PID.TID 0000.0001) %MON exf_hflux_mean               =   2.4435102520778E+02
(PID.TID 0000.0001) %MON exf_hflux_sd                 =   1.4315421845848E+02
(PID.TID 0000.0001) %MON exf_hflux_del2               =   1.1113385820975E-01
(PID.TID 0000.0001) %MON exf_sflux_max                =   2.6116477754287E-07
(PID.TID 0000.0001) %MON exf_sflux_min                =  -1.0214097399064E-06
(PID.TID 0000.0001) %MON exf_sflux_mean               =   1.2571822623845E-08
(PID.TID 0000.0001) %MON exf_sflux_sd                 =   1.0126596340404E-07
(PID.TID 0000.0001) %MON exf_sflux_del2               =   4.0285940467516E-11
(PID.TID 0000.0001) %MON exf_uwind_max                =   1.9566140412934E+01
(PID.TID 0000.0001) %MON exf_uwind_min                =  -1.5111867862199E+01
(PID.TID 0000.0001) %MON exf_uwind_mean               =   2.4675934111953E+00
(PID.TID 0000.0001) %MON exf_uwind_sd                 =   6.6870895074412E+00
(PID.TID 0000.0001) %MON exf_uwind_del2               =   2.8447926102587E-03
(PID.TID 0000.0001) %MON exf_vwind_max                =   1.4603455039752E+01
(PID.TID 0000.0001) %MON exf_vwind_min                =  -1.2808291898912E+01
(PID.TID 0000.0001) %MON exf_vwind_mean               =   8.4959768907093E-01
(PID.TID 0000.0001) %MON exf_vwind_sd                 =   5.2165471434585E+00
(PID.TID 0000.0001) %MON exf_vwind_del2               =   2.0998588327220E-03
(PID.TID 0000.0001) %MON exf_wspeed_max               =   2.0538120441624E+01
(PID.TID 0000.0001) %MON exf_wspeed_min               =   1.4208992096916E-02
(PID.TID 0000.0001) %MON exf_wspeed_mean              =   7.7451953043124E+00
(PID.TID 0000.0001) %MON exf_wspeed_sd                =   4.3303941338821E+00
(PID.TID 0000.0001) %MON exf_wspeed_del2              =   3.5355100420307E-03
(PID.TID 0000.0001) %MON exf_atemp_max                =   2.9817342958842E+02
(PID.TID 0000.0001) %MON exf_atemp_min                =   2.7450055625835E+02
(PID.TID 0000.0001) %MON exf_atemp_mean               =   2.9069590438109E+02
(PID.TID 0000.0001) %MON exf_atemp_sd                 =   3.9442154521307E+00
(PID.TID 0000.0001) %MON exf_atemp_del2               =   6.8472278878904E-03
(PID.TID 0000.0001) %MON exf_aqh_max                  =   1.6808502931582E-02
(PID.TID 0000.0001) %MON exf_aqh_min                  =   2.7354735369524E-03
(PID.TID 0000.0001) %MON exf_aqh_mean                 =   9.4263961959154E-03
(PID.TID 0000.0001) %MON exf_aqh_sd                   =   2.8729783809480E-03
(PID.TID 0000.0001) %MON exf_aqh_del2                 =   3.7524618969282E-06
(PID.TID 0000.0001) %MON exf_lwflux_max               =   1.5112484710508E+02
(PID.TID 0000.0001) %MON exf_lwflux_min               =   1.5989252230514E+01
(PID.TID 0000.0001) %MON exf_lwflux_mean              =   6.9700606587301E+01
(PID.TID 0000.0001) %MON exf_lwflux_sd                =   2.1124411969575E+01
(PID.TID 0000.0001) %MON exf_lwflux_del2              =   2.7984826839064E-02
(PID.TID 0000.0001) %MON exf_evap_max                 =   2.7063972261433E-07
(PID.TID 0000.0001) %MON exf_evap_min                 =  -9.1555362581833E-08
(PID.TID 0000.0001) %MON exf_evap_mean                =   5.9477439665589E-08
(PID.TID 0000.0001) %MON exf_evap_sd                  =   4.2281406530092E-08
(PID.TID 0000.0001) %MON exf_evap_del2                =   2.8649557012724E-11
(PID.TID 0000.0001) %MON exf_precip_max               =   1.1937895275386E-06
(PID.TID 0000.0001) %MON exf_precip_min               =   0.0000000000000E+00
(PID.TID 0000.0001) %MON exf_precip_mean              =   4.5317137636524E-08
(PID.TID 0000.0001) %MON exf_precip_sd                =   9.8966652401900E-08
(PID.TID 0000.0001) %MON exf_precip_del2              =   4.3705556140304E-11
(PID.TID 0000.0001) %MON exf_swflux_max               =   0.0000000000000E+00
(PID.TID 0000.0001) %MON exf_swflux_min               =   0.0000000000000E+00
(PID.TID 0000.0001) %MON exf_swflux_mean              =   0.0000000000000E+00
(PID.TID 0000.0001) %MON exf_swflux_sd                =   0.0000000000000E+00
(PID.TID 0000.0001) %MON exf_swflux_del2              =   0.0000000000000E+00
(PID.TID 0000.0001) %MON exf_swdown_max               =   0.0000000000000E+00
(PID.TID 0000.0001) %MON exf_swdown_min               =   0.0000000000000E+00
(PID.TID 0000.0001) %MON exf_swdown_mean              =   0.0000000000000E+00
(PID.TID 0000.0001) %MON exf_swdown_sd                =   0.0000000000000E+00
(PID.TID 0000.0001) %MON exf_swdown_del2              =   0.0000000000000E+00
(PID.TID 0000.0001) %MON exf_lwdown_max               =   3.9916214768056E+02
(PID.TID 0000.0001) %MON exf_lwdown_min               =   2.2827070729266E+02
(PID.TID 0000.0001) %MON exf_lwdown_mean              =   3.4524786348664E+02
(PID.TID 0000.0001) %MON exf_lwdown_sd                =   2.6075858085817E+01
(PID.TID 0000.0001) %MON exf_lwdown_del2              =   1.3351334749920E-01
(PID.TID 0000.0001) %MON exf_apressure_max            =   1.0278842789597E+05
(PID.TID 0000.0001) %MON exf_apressure_min            =   9.9983892237062E+04
(PID.TID 0000.0001) %MON exf_apressure_mean           =   1.0216063339349E+05
(PID.TID 0000.0001) %MON exf_apressure_sd             =   5.0022107601393E+02
(PID.TID 0000.0001) %MON exf_apressure_del2           =   3.9517872256091E+01
(PID.TID 0000.0001) %MON exf_runoff_max               =   4.4374791284855E-08
(PID.TID 0000.0001) %MON exf_runoff_min               =   0.0000000000000E+00
(PID.TID 0000.0001) %MON exf_runoff_mean              =   1.5884794052194E-09
(PID.TID 0000.0001) %MON exf_runoff_sd                =   5.3901957917178E-09
(PID.TID 0000.0001) %MON exf_runoff_del2              =   2.2191214937507E-12
(PID.TID 0000.0001) // =======================================================
(PID.TID 0000.0001) // End MONITOR EXF statistics
(PID.TID 0000.0001) // =======================================================
 cg2d: Sum(rhs),rhsMax =   2.68719078671371E+02  1.74864823129362E-01
(PID.TID 0000.0001)      cg2d_init_res =   3.14692755157629E+00
(PID.TID 0000.0001)      cg2d_iters(min,last) =      -1     320
(PID.TID 0000.0001)      cg2d_last_res =   6.77484133767869E-12
(PID.TID 0000.0001) // =======================================================
(PID.TID 0000.0001) // Begin MONITOR dynamic field statistics
(PID.TID 0000.0001) // =======================================================
(PID.TID 0000.0001) %MON time_tsnumber                =                     3
(PID.TID 0000.0001) %MON time_secondsf                =   7.2000000000000E+02
(PID.TID 0000.0001) %MON dynstat_eta_max              =   1.4705686216263E+00
(PID.TID 0000.0001) %MON dynstat_eta_min              =  -8.6763631449042E-01
(PID.TID 0000.0001) %MON dynstat_eta_mean             =  -9.1383568744708E-03
(PID.TID 0000.0001) %MON dynstat_eta_sd               =   1.1397238281724E-01
(PID.TID 0000.0001) %MON dynstat_eta_del2             =   2.8445408869716E-06
(PID.TID 0000.0001) %MON dynstat_uvel_max             =   1.2896872556729E+00
(PID.TID 0000.0001) %MON dynstat_uvel_min             =  -7.0539832161297E-01
(PID.TID 0000.0001) %MON dynstat_uvel_mean            =   3.5939250371118E-03
(PID.TID 0000.0001) %MON dynstat_uvel_sd              =   5.2329978205795E-02
(PID.TID 0000.0001) %MON dynstat_uvel_del2            =   4.6130993891900E-07
(PID.TID 0000.0001) %MON dynstat_vvel_max             =   1.8123179198619E+00
(PID.TID 0000.0001) %MON dynstat_vvel_min             =  -8.9822821707590E-01
(PID.TID 0000.0001) %MON dynstat_vvel_mean            =  -3.4577102751380E-03
(PID.TID 0000.0001) %MON dynstat_vvel_sd              =   4.8007694068187E-02
(PID.TID 0000.0001) %MON dynstat_vvel_del2            =   4.2557360232185E-07
(PID.TID 0000.0001) %MON dynstat_wvel_max             =   3.7202168764559E-02
(PID.TID 0000.0001) %MON dynstat_wvel_min             =  -3.2622598053412E-02
(PID.TID 0000.0001) %MON dynstat_wvel_mean            =  -8.2775079837720E-06
(PID.TID 0000.0001) %MON dynstat_wvel_sd              =   5.8793196343144E-04
(PID.TID 0000.0001) %MON dynstat_wvel_del2            =   8.9032549434481E-08
(PID.TID 0000.0001) %MON dynstat_theta_max            =   2.6141091320818E+01
(PID.TID 0000.0001) %MON dynstat_theta_min            =   1.4688641030169E+00
(PID.TID 0000.0001) %MON dynstat_theta_mean           =   5.5098984802724E+00
(PID.TID 0000.0001) %MON dynstat_theta_sd             =   4.7735465850462E+00
(PID.TID 0000.0001) %MON dynstat_theta_del2           =   3.9895753581866E-06
(PID.TID 0000.0001) %MON dynstat_salt_max             =   3.9180974990976E+01
(PID.TID 0000.0001) %MON dynstat_salt_min             =   3.3091322490044E+01
(PID.TID 0000.0001) %MON dynstat_salt_mean            =   3.5173375658006E+01
(PID.TID 0000.0001) %MON dynstat_salt_sd              =   3.7892483863961E-01
(PID.TID 0000.0001) %MON dynstat_salt_del2            =   4.9645377495661E-07
(PID.TID 0000.0001) %MON forcing_qnet_max             =   1.1587114403421E+03
(PID.TID 0000.0001) %MON forcing_qnet_min             =  -2.6557546576630E+02
(PID.TID 0000.0001) %MON forcing_qnet_mean            =   2.4605013729068E+02
(PID.TID 0000.0001) %MON forcing_qnet_sd              =   1.4592340762817E+02
(PID.TID 0000.0001) %MON forcing_qnet_del2            =   1.6909019373147E-03
(PID.TID 0000.0001) %MON forcing_qsw_max              =   0.0000000000000E+00
(PID.TID 0000.0001) %MON forcing_qsw_min              =   0.0000000000000E+00
(PID.TID 0000.0001) %MON forcing_qsw_mean             =   0.0000000000000E+00
(PID.TID 0000.0001) %MON forcing_qsw_sd               =   0.0000000000000E+00
(PID.TID 0000.0001) %MON forcing_qsw_del2             =   0.0000000000000E+00
(PID.TID 0000.0001) %MON forcing_empmr_max            =   2.6116477754287E-04
(PID.TID 0000.0001) %MON forcing_empmr_min            =  -1.0214097399064E-03
(PID.TID 0000.0001) %MON forcing_empmr_mean           =   1.2571822623845E-05
(PID.TID 0000.0001) %MON forcing_empmr_sd             =   1.0126596340404E-04
(PID.TID 0000.0001) %MON forcing_empmr_del2           =   2.5459120483432E-09
(PID.TID 0000.0001) %MON forcing_fu_max               =   8.3669364414497E-01
(PID.TID 0000.0001) %MON forcing_fu_min               =  -4.2573414911123E-01
(PID.TID 0000.0001) %MON forcing_fu_mean              =   6.3071647310841E-02
(PID.TID 0000.0001) %MON forcing_fu_sd                =   1.5637742424704E-01
(PID.TID 0000.0001) %MON forcing_fu_del2              =   3.8086013405619E-07
(PID.TID 0000.0001) %MON forcing_fv_max               =   4.0882486650396E-01
(PID.TID 0000.0001) %MON forcing_fv_min               =  -5.7174753283027E-01
(PID.TID 0000.0001) %MON forcing_fv_mean              =   1.0687529731566E-02
(PID.TID 0000.0001) %MON forcing_fv_sd                =   1.0278568186036E-01
(PID.TID 0000.0001) %MON forcing_fv_del2              =   2.8568377496354E-07
(PID.TID 0000.0001) %MON trAdv_CFL_u_max              =   7.8246309694597E-02
(PID.TID 0000.0001) %MON trAdv_CFL_v_max              =   1.1498446875663E-01
(PID.TID 0000.0001) %MON trAdv_CFL_w_max              =   5.0132248440836E-01
(PID.TID 0000.0001) %MON advcfl_uvel_max              =   7.8246308629203E-02
(PID.TID 0000.0001) %MON advcfl_vvel_max              =   1.1501827864797E-01
(PID.TID 0000.0001) %MON advcfl_wvel_max              =   5.0281008821966E-01
(PID.TID 0000.0001) %MON advcfl_W_hf_max              =   5.0430654681555E-01
(PID.TID 0000.0001) %MON pe_b_mean                    =  -2.0868326471486E-04
(PID.TID 0000.0001) %MON ke_max                       =   1.6448464427023E+00
(PID.TID 0000.0001) %MON ke_mean                      =   2.5152531297479E-03
(PID.TID 0000.0001) %MON ke_vol                       =   4.5818637279721E+16
(PID.TID 0000.0001) %MON vort_r_min                   =  -4.8010395468112E-04
(PID.TID 0000.0001) %MON vort_r_max                   =   4.5480575214182E-04
(PID.TID 0000.0001) %MON vort_a_mean                  =   8.2147611273730E-05
(PID.TID 0000.0001) %MON vort_a_sd                    =   1.0122679143117E-05
(PID.TID 0000.0001) %MON vort_p_mean                  =   8.4848832194362E-05
(PID.TID 0000.0001) %MON vort_p_sd                    =   3.4986389236122E-05
(PID.TID 0000.0001) %MON surfExpan_theta_mean         =  -1.8777151913941E-04
(PID.TID 0000.0001) %MON surfExpan_salt_mean          =  -4.1510234158291E-04
(PID.TID 0000.0001) // =======================================================
(PID.TID 0000.0001) // End MONITOR dynamic field statistics
(PID.TID 0000.0001) // =======================================================
(PID.TID 0000.0001) // =======================================================
(PID.TID 0000.0001) // Begin OBCS MONITOR field statistics
(PID.TID 0000.0001) // =======================================================
(PID.TID 0000.0001) %MON obc_N_vVel_max               =   6.7768468215223E-01
(PID.TID 0000.0001) %MON obc_N_vVel_min               =  -7.0026139745009E-01
(PID.TID 0000.0001) %MON obc_N_vVel_mean              =  -6.1043205345299E-03
(PID.TID 0000.0001) %MON obc_N_vVel_sd                =   6.2785006417740E-02
(PID.TID 0000.0001) %MON obc_N_vVel_Int               =  -8.7383864039015E+07
(PID.TID 0000.0001) %MON obc_S_vVel_max               =   1.5881454660063E+00
(PID.TID 0000.0001) %MON obc_S_vVel_min               =  -2.5618330527612E-01
(PID.TID 0000.0001) %MON obc_S_vVel_mean              =  -7.2092216827641E-03
(PID.TID 0000.0001) %MON obc_S_vVel_sd                =   3.6980223163393E-02
(PID.TID 0000.0001) %MON obc_S_vVel_Int               =  -2.1946961240824E+08
(PID.TID 0000.0001) %MON obc_N_theta_max              =   1.6390596738603E+01
(PID.TID 0000.0001) %MON obc_N_theta_min              =   1.8895908741817E+00
(PID.TID 0000.0001) %MON obc_N_theta_mean             =   5.1589583494387E+00
(PID.TID 0000.0001) %MON obc_N_theta_sd               =   3.4827060621667E+00
(PID.TID 0000.0001) %MON obc_S_theta_max              =   2.5544633062468E+01
(PID.TID 0000.0001) %MON obc_S_theta_min              =   1.4632968297484E+00
(PID.TID 0000.0001) %MON obc_S_theta_mean             =   5.4595553651377E+00
(PID.TID 0000.0001) %MON obc_S_theta_sd               =   5.3559254217423E+00
(PID.TID 0000.0001) %MON obc_N_salt_max               =   3.5910866422869E+01
(PID.TID 0000.0001) %MON obc_N_salt_min               =   3.3295030577945E+01
(PID.TID 0000.0001) %MON obc_N_salt_mean              =   3.5114563428390E+01
(PID.TID 0000.0001) %MON obc_N_salt_sd                =   3.0984897117919E-01
(PID.TID 0000.0001) %MON obc_S_salt_max               =   3.7318325977469E+01
(PID.TID 0000.0001) %MON obc_S_salt_min               =   3.4844694470478E+01
(PID.TID 0000.0001) %MON obc_S_salt_mean              =   3.5168372723085E+01
(PID.TID 0000.0001) %MON obc_S_salt_sd                =   4.5717005458027E-01
(PID.TID 0000.0001) // =======================================================
(PID.TID 0000.0001) // End OBCS MONITOR field statistics
(PID.TID 0000.0001) // =======================================================
(PID.TID 0000.0001) // =======================================================
(PID.TID 0000.0001) // Begin MONITOR EXF statistics
(PID.TID 0000.0001) // =======================================================
(PID.TID 0000.0001) %MON exf_tsnumber                 =                     3
(PID.TID 0000.0001) %MON exf_time_sec                 =   7.2000000000000E+02
(PID.TID 0000.0001) %MON exf_ustress_max              =   8.3695780698828E-01
(PID.TID 0000.0001) %MON exf_ustress_min              =  -4.2256425324728E-01
(PID.TID 0000.0001) %MON exf_ustress_mean             =   6.2969737359787E-02
(PID.TID 0000.0001) %MON exf_ustress_sd               =   1.5583382254611E-01
(PID.TID 0000.0001) %MON exf_ustress_del2             =   4.0509488774762E-07
(PID.TID 0000.0001) %MON exf_vstress_max              =   4.0169350923830E-01
(PID.TID 0000.0001) %MON exf_vstress_min              =  -5.6690209073488E-01
(PID.TID 0000.0001) %MON exf_vstress_mean             =   1.0703895047525E-02
(PID.TID 0000.0001) %MON exf_vstress_sd               =   1.0221977882676E-01
(PID.TID 0000.0001) %MON exf_vstress_del2             =   2.8872885742190E-07
(PID.TID 0000.0001) %MON exf_hflux_max                =   1.1411817120978E+03
(PID.TID 0000.0001) %MON exf_hflux_min                =  -2.6428112896928E+02
(PID.TID 0000.0001) %MON exf_hflux_mean               =   2.4340642540258E+02
(PID.TID 0000.0001) %MON exf_hflux_sd                 =   1.4242426037784E+02
(PID.TID 0000.0001) %MON exf_hflux_del2               =   1.1066970858464E-01
(PID.TID 0000.0001) %MON exf_sflux_max                =   2.6023321081635E-07
(PID.TID 0000.0001) %MON exf_sflux_min                =  -1.1464376621477E-06
(PID.TID 0000.0001) %MON exf_sflux_mean               =   1.3434733922591E-08
(PID.TID 0000.0001) %MON exf_sflux_sd                 =   1.0476534054721E-07
(PID.TID 0000.0001) %MON exf_sflux_del2               =   4.1840694195155E-11
(PID.TID 0000.0001) %MON exf_uwind_max                =   1.9567038201084E+01
(PID.TID 0000.0001) %MON exf_uwind_min                =  -1.5072851295945E+01
(PID.TID 0000.0001) %MON exf_uwind_mean               =   2.4689501443490E+00
(PID.TID 0000.0001) %MON exf_uwind_sd                 =   6.6812597203381E+00
(PID.TID 0000.0001) %MON exf_uwind_del2               =   2.8427672721396E-03
(PID.TID 0000.0001) %MON exf_vwind_max                =   1.4511595099061E+01
(PID.TID 0000.0001) %MON exf_vwind_min                =  -1.2793408568730E+01
(PID.TID 0000.0001) %MON exf_vwind_mean               =   8.5198853423434E-01
(PID.TID 0000.0001) %MON exf_vwind_sd                 =   5.2058556153275E+00
(PID.TID 0000.0001) %MON exf_vwind_del2               =   2.0960584692984E-03
(PID.TID 0000.0001) %MON exf_wspeed_max               =   2.0482722544122E+01
(PID.TID 0000.0001) %MON exf_wspeed_min               =   3.7993803498293E-03
(PID.TID 0000.0001) %MON exf_wspeed_mean              =   7.7363504311514E+00
(PID.TID 0000.0001) %MON exf_wspeed_sd                =   4.3255803567176E+00
(PID.TID 0000.0001) %MON exf_wspeed_del2              =   3.5316424583347E-03
(PID.TID 0000.0001) %MON exf_atemp_max                =   2.9817123230001E+02
(PID.TID 0000.0001) %MON exf_atemp_min                =   2.7447495504971E+02
(PID.TID 0000.0001) %MON exf_atemp_mean               =   2.9069278317489E+02
(PID.TID 0000.0001) %MON exf_atemp_sd                 =   3.9438218287336E+00
(PID.TID 0000.0001) %MON exf_atemp_del2               =   6.8459620303780E-03
(PID.TID 0000.0001) %MON exf_aqh_max                  =   1.6801516630708E-02
(PID.TID 0000.0001) %MON exf_aqh_min                  =   2.7331788391884E-03
(PID.TID 0000.0001) %MON exf_aqh_mean                 =   9.4252080431013E-03
(PID.TID 0000.0001) %MON exf_aqh_sd                   =   2.8726446397291E-03
(PID.TID 0000.0001) %MON exf_aqh_del2                 =   3.7518848476227E-06
(PID.TID 0000.0001) %MON exf_lwflux_max               =   1.5079980655886E+02
(PID.TID 0000.0001) %MON exf_lwflux_min               =   1.3832299322125E+01
(PID.TID 0000.0001) %MON exf_lwflux_mean              =   6.8922148154117E+01
(PID.TID 0000.0001) %MON exf_lwflux_sd                =   2.1648928426373E+01
(PID.TID 0000.0001) %MON exf_lwflux_del2              =   2.7751736178223E-02
(PID.TID 0000.0001) %MON exf_evap_max                 =   2.7197239474481E-07
(PID.TID 0000.0001) %MON exf_evap_min                 =  -9.2043758600449E-08
(PID.TID 0000.0001) %MON exf_evap_mean                =   5.9416485135487E-08
(PID.TID 0000.0001) %MON exf_evap_sd                  =   4.2201850907930E-08
(PID.TID 0000.0001) %MON exf_evap_del2                =   2.8615940917637E-11
(PID.TID 0000.0001) %MON exf_precip_max               =   1.3194515830690E-06
(PID.TID 0000.0001) %MON exf_precip_min               =   0.0000000000000E+00
(PID.TID 0000.0001) %MON exf_precip_mean              =   4.4393271807676E-08
(PID.TID 0000.0001) %MON exf_precip_sd                =   1.0414728851172E-07
(PID.TID 0000.0001) %MON exf_precip_del2              =   4.5592101186006E-11
(PID.TID 0000.0001) %MON exf_swflux_max               =   0.0000000000000E+00
(PID.TID 0000.0001) %MON exf_swflux_min               =   0.0000000000000E+00
(PID.TID 0000.0001) %MON exf_swflux_mean              =   0.0000000000000E+00
(PID.TID 0000.0001) %MON exf_swflux_sd                =   0.0000000000000E+00
(PID.TID 0000.0001) %MON exf_swflux_del2              =   0.0000000000000E+00
(PID.TID 0000.0001) %MON exf_swdown_max               =   0.0000000000000E+00
(PID.TID 0000.0001) %MON exf_swdown_min               =   0.0000000000000E+00
(PID.TID 0000.0001) %MON exf_swdown_mean              =   0.0000000000000E+00
(PID.TID 0000.0001) %MON exf_swdown_sd                =   0.0000000000000E+00
(PID.TID 0000.0001) %MON exf_swdown_del2              =   0.0000000000000E+00
(PID.TID 0000.0001) %MON exf_lwdown_max               =   3.9966788667862E+02
(PID.TID 0000.0001) %MON exf_lwdown_min               =   2.2872729573522E+02
(PID.TID 0000.0001) %MON exf_lwdown_mean              =   3.4604191746690E+02
(PID.TID 0000.0001) %MON exf_lwdown_sd                =   2.6718022331913E+01
(PID.TID 0000.0001) %MON exf_lwdown_del2              =   1.3384315481687E-01
(PID.TID 0000.0001) %MON exf_apressure_max            =   1.0278993892836E+05
(PID.TID 0000.0001) %MON exf_apressure_min            =   9.9988779524667E+04
(PID.TID 0000.0001) %MON exf_apressure_mean           =   1.0216141070004E+05
(PID.TID 0000.0001) %MON exf_apressure_sd             =   4.9989954915976E+02
(PID.TID 0000.0001) %MON exf_apressure_del2           =   3.9518179258773E+01
(PID.TID 0000.0001) %MON exf_runoff_max               =   4.4374791284855E-08
(PID.TID 0000.0001) %MON exf_runoff_min               =   0.0000000000000E+00
(PID.TID 0000.0001) %MON exf_runoff_mean              =   1.5884794052194E-09
(PID.TID 0000.0001) %MON exf_runoff_sd                =   5.3901957917178E-09
(PID.TID 0000.0001) %MON exf_runoff_del2              =   2.2191214937507E-12
(PID.TID 0000.0001) // =======================================================
(PID.TID 0000.0001) // End MONITOR EXF statistics
(PID.TID 0000.0001) // =======================================================
 cg2d: Sum(rhs),rhsMax =   3.43976803931148E+02  2.27842315027649E-01
(PID.TID 0000.0001)      cg2d_init_res =   2.08123251813851E+00
(PID.TID 0000.0001)      cg2d_iters(min,last) =      -1     317
(PID.TID 0000.0001)      cg2d_last_res =   6.70333969189821E-12
(PID.TID 0000.0001) // =======================================================
(PID.TID 0000.0001) // Begin MONITOR dynamic field statistics
(PID.TID 0000.0001) // =======================================================
(PID.TID 0000.0001) %MON time_tsnumber                =                     4
(PID.TID 0000.0001) %MON time_secondsf                =   9.6000000000000E+02
(PID.TID 0000.0001) %MON dynstat_eta_max              =   1.4023682311749E+00
(PID.TID 0000.0001) %MON dynstat_eta_min              =  -7.7195152346770E-01
(PID.TID 0000.0001) %MON dynstat_eta_mean             =  -1.1697653945543E-02
(PID.TID 0000.0001) %MON dynstat_eta_sd               =   1.3605172531191E-01
(PID.TID 0000.0001) %MON dynstat_eta_del2             =   2.6706740169411E-06
(PID.TID 0000.0001) %MON dynstat_uvel_max             =   1.2944586020574E+00
(PID.TID 0000.0001) %MON dynstat_uvel_min             =  -7.0510486456926E-01
(PID.TID 0000.0001) %MON dynstat_uvel_mean            =   3.3984904851090E-03
(PID.TID 0000.0001) %MON dynstat_uvel_sd              =   5.2365482065730E-02
(PID.TID 0000.0001) %MON dynstat_uvel_del2            =   4.6250464204783E-07
(PID.TID 0000.0001) %MON dynstat_vvel_max             =   1.8268868849330E+00
(PID.TID 0000.0001) %MON dynstat_vvel_min             =  -9.0270696381901E-01
(PID.TID 0000.0001) %MON dynstat_vvel_mean            =  -4.4093070369325E-03
(PID.TID 0000.0001) %MON dynstat_vvel_sd              =   4.7993636680611E-02
(PID.TID 0000.0001) %MON dynstat_vvel_del2            =   4.2566339880865E-07
(PID.TID 0000.0001) %MON dynstat_wvel_max             =   3.7214853952711E-02
(PID.TID 0000.0001) %MON dynstat_wvel_min             =  -3.1709117303315E-02
(PID.TID 0000.0001) %MON dynstat_wvel_mean            =  -7.6633259453658E-06
(PID.TID 0000.0001) %MON dynstat_wvel_sd              =   5.8697869986362E-04
(PID.TID 0000.0001) %MON dynstat_wvel_del2            =   8.5415856839247E-08
(PID.TID 0000.0001) %MON dynstat_theta_max            =   2.6140741006517E+01
(PID.TID 0000.0001) %MON dynstat_theta_min            =   1.4688642480551E+00
(PID.TID 0000.0001) %MON dynstat_theta_mean           =   5.5099001141468E+00
(PID.TID 0000.0001) %MON dynstat_theta_sd             =   4.7735405745640E+00
(PID.TID 0000.0001) %MON dynstat_theta_del2           =   3.9889838544200E-06
(PID.TID 0000.0001) %MON dynstat_salt_max             =   3.9178855507266E+01
(PID.TID 0000.0001) %MON dynstat_salt_min             =   3.3091974131651E+01
(PID.TID 0000.0001) %MON dynstat_salt_mean            =   3.5173375559616E+01
(PID.TID 0000.0001) %MON dynstat_salt_sd              =   3.7892587469841E-01
(PID.TID 0000.0001) %MON dynstat_salt_del2            =   4.9897383778444E-07
(PID.TID 0000.0001) %MON forcing_qnet_max             =   1.1589376730471E+03
(PID.TID 0000.0001) %MON forcing_qnet_min             =  -2.6938788346148E+02
(PID.TID 0000.0001) %MON forcing_qnet_mean            =   2.4518328449116E+02
(PID.TID 0000.0001) %MON forcing_qnet_sd              =   1.4497675968185E+02
(PID.TID 0000.0001) %MON forcing_qnet_del2            =   1.6849854791534E-03
(PID.TID 0000.0001) %MON forcing_qsw_max              =   0.0000000000000E+00
(PID.TID 0000.0001) %MON forcing_qsw_min              =   0.0000000000000E+00
(PID.TID 0000.0001) %MON forcing_qsw_mean             =   0.0000000000000E+00
(PID.TID 0000.0001) %MON forcing_qsw_sd               =   0.0000000000000E+00
(PID.TID 0000.0001) %MON forcing_qsw_del2             =   0.0000000000000E+00
(PID.TID 0000.0001) %MON forcing_empmr_max            =   2.6023321081635E-04
(PID.TID 0000.0001) %MON forcing_empmr_min            =  -1.1464376621477E-03
(PID.TID 0000.0001) %MON forcing_empmr_mean           =   1.3434733922591E-05
(PID.TID 0000.0001) %MON forcing_empmr_sd             =   1.0476534054721E-04
(PID.TID 0000.0001) %MON forcing_empmr_del2           =   2.6475347009586E-09
(PID.TID 0000.0001) %MON forcing_fu_max               =   8.3496675540486E-01
(PID.TID 0000.0001) %MON forcing_fu_min               =  -4.2246221890815E-01
(PID.TID 0000.0001) %MON forcing_fu_mean              =   6.3026874669516E-02
(PID.TID 0000.0001) %MON forcing_fu_sd                =   1.5589280518923E-01
(PID.TID 0000.0001) %MON forcing_fu_del2              =   3.6387711444819E-07
(PID.TID 0000.0001) %MON forcing_fv_max               =   4.0123914009182E-01
(PID.TID 0000.0001) %MON forcing_fv_min               =  -5.6962346796560E-01
(PID.TID 0000.0001) %MON forcing_fv_mean              =   1.0684712732329E-02
(PID.TID 0000.0001) %MON forcing_fv_sd                =   1.0234913009216E-01
(PID.TID 0000.0001) %MON forcing_fv_del2              =   2.6855373149584E-07
(PID.TID 0000.0001) %MON trAdv_CFL_u_max              =   7.8535790919770E-02
(PID.TID 0000.0001) %MON trAdv_CFL_v_max              =   1.1589235738633E-01
(PID.TID 0000.0001) %MON trAdv_CFL_w_max              =   4.8279324996787E-01
(PID.TID 0000.0001) %MON advcfl_uvel_max              =   7.8535789850434E-02
(PID.TID 0000.0001) %MON advcfl_vvel_max              =   1.1592643423212E-01
(PID.TID 0000.0001) %MON advcfl_wvel_max              =   4.8422587088765E-01
(PID.TID 0000.0001) %MON advcfl_W_hf_max              =   4.8566701931291E-01
(PID.TID 0000.0001) %MON pe_b_mean                    =  -2.6473317952627E-04
(PID.TID 0000.0001) %MON ke_max                       =   1.6710854339928E+00
(PID.TID 0000.0001) %MON ke_mean                      =   2.5194726586180E-03
(PID.TID 0000.0001) %MON ke_vol                       =   4.5818637279721E+16
(PID.TID 0000.0001) %MON vort_r_min                   =  -5.0889885144173E-04
(PID.TID 0000.0001) %MON vort_r_max                   =   4.7090725722027E-04
(PID.TID 0000.0001) %MON vort_a_mean                  =   8.2147611426206E-05
(PID.TID 0000.0001) %MON vort_a_sd                    =   1.0123918529828E-05
(PID.TID 0000.0001) %MON vort_p_mean                  =   8.4848832351852E-05
(PID.TID 0000.0001) %MON vort_p_sd                    =   3.4986258648991E-05
(PID.TID 0000.0001) %MON surfExpan_theta_mean         =  -1.5271389653290E-04
(PID.TID 0000.0001) %MON surfExpan_salt_mean          =  -3.7603475457827E-04
(PID.TID 0000.0001) // =======================================================
(PID.TID 0000.0001) // End MONITOR dynamic field statistics
(PID.TID 0000.0001) // =======================================================
(PID.TID 0000.0001) // =======================================================
(PID.TID 0000.0001) // Begin OBCS MONITOR field statistics
(PID.TID 0000.0001) // =======================================================
(PID.TID 0000.0001) %MON obc_N_vVel_max               =   6.7754068437738E-01
(PID.TID 0000.0001) %MON obc_N_vVel_min               =  -7.0319178398679E-01
(PID.TID 0000.0001) %MON obc_N_vVel_mean              =  -6.2392808304395E-03
(PID.TID 0000.0001) %MON obc_N_vVel_sd                =   6.2799847673169E-02
(PID.TID 0000.0001) %MON obc_N_vVel_Int               =  -8.9315832074068E+07
(PID.TID 0000.0001) %MON obc_S_vVel_max               =   1.5890593411465E+00
(PID.TID 0000.0001) %MON obc_S_vVel_min               =  -2.5605719911104E-01
(PID.TID 0000.0001) %MON obc_S_vVel_mean              =  -6.8926313341004E-03
(PID.TID 0000.0001) %MON obc_S_vVel_sd                =   3.6983705586668E-02
(PID.TID 0000.0001) %MON obc_S_vVel_Int               =  -2.0983168418646E+08
(PID.TID 0000.0001) %MON obc_N_theta_max              =   1.6390508636415E+01
(PID.TID 0000.0001) %MON obc_N_theta_min              =   1.8895909232471E+00
(PID.TID 0000.0001) %MON obc_N_theta_mean             =   5.1589509652887E+00
(PID.TID 0000.0001) %MON obc_N_theta_sd               =   3.4826967698724E+00
(PID.TID 0000.0001) %MON obc_S_theta_max              =   2.5544530313689E+01
(PID.TID 0000.0001) %MON obc_S_theta_min              =   1.4632972260357E+00
(PID.TID 0000.0001) %MON obc_S_theta_mean             =   5.4595545601131E+00
(PID.TID 0000.0001) %MON obc_S_theta_sd               =   5.3559215504875E+00
(PID.TID 0000.0001) %MON obc_N_salt_max               =   3.5910866014505E+01
(PID.TID 0000.0001) %MON obc_N_salt_min               =   3.3295036080578E+01
(PID.TID 0000.0001) %MON obc_N_salt_mean              =   3.5114563132404E+01
(PID.TID 0000.0001) %MON obc_N_salt_sd                =   3.0984885180316E-01
(PID.TID 0000.0001) %MON obc_S_salt_max               =   3.7318319093085E+01
(PID.TID 0000.0001) %MON obc_S_salt_min               =   3.4844694522698E+01
(PID.TID 0000.0001) %MON obc_S_salt_mean              =   3.5168372651168E+01
(PID.TID 0000.0001) %MON obc_S_salt_sd                =   4.5716970348508E-01
(PID.TID 0000.0001) // =======================================================
(PID.TID 0000.0001) // End OBCS MONITOR field statistics
(PID.TID 0000.0001) // =======================================================
(PID.TID 0000.0001) // =======================================================
(PID.TID 0000.0001) // Begin MONITOR EXF statistics
(PID.TID 0000.0001) // =======================================================
(PID.TID 0000.0001) %MON exf_tsnumber                 =                     4
(PID.TID 0000.0001) %MON exf_time_sec                 =   9.6000000000000E+02
(PID.TID 0000.0001) %MON exf_ustress_max              =   8.3606654111441E-01
(PID.TID 0000.0001) %MON exf_ustress_min              =  -4.1945618256075E-01
(PID.TID 0000.0001) %MON exf_ustress_mean             =   6.2960072183894E-02
(PID.TID 0000.0001) %MON exf_ustress_sd               =   1.5546038769526E-01
(PID.TID 0000.0001) %MON exf_ustress_del2             =   3.9296869169355E-07
(PID.TID 0000.0001) %MON exf_vstress_max              =   3.9638684680939E-01
(PID.TID 0000.0001) %MON exf_vstress_min              =  -5.6487987321304E-01
(PID.TID 0000.0001) %MON exf_vstress_mean             =   1.0716402350720E-02
(PID.TID 0000.0001) %MON exf_vstress_sd               =   1.0188904611745E-01
(PID.TID 0000.0001) %MON exf_vstress_del2             =   2.7610162725332E-07
(PID.TID 0000.0001) %MON exf_hflux_max                =   1.1440193422956E+03
(PID.TID 0000.0001) %MON exf_hflux_min                =  -2.6834865966652E+02
(PID.TID 0000.0001) %MON exf_hflux_mean               =   2.4249964330291E+02
(PID.TID 0000.0001) %MON exf_hflux_sd                 =   1.4178505387933E+02
(PID.TID 0000.0001) %MON exf_hflux_del2               =   1.1023841932446E-01
(PID.TID 0000.0001) %MON exf_sflux_max                =   2.5934628979527E-07
(PID.TID 0000.0001) %MON exf_sflux_min                =  -1.2714458049138E-06
(PID.TID 0000.0001) %MON exf_sflux_mean               =   1.4309560968394E-08
(PID.TID 0000.0001) %MON exf_sflux_sd                 =   1.0961565207326E-07
(PID.TID 0000.0001) %MON exf_sflux_del2               =   4.3926503010161E-11
(PID.TID 0000.0001) %MON exf_uwind_max                =   1.9570751967955E+01
(PID.TID 0000.0001) %MON exf_uwind_min                =  -1.5035524731992E+01
(PID.TID 0000.0001) %MON exf_uwind_mean               =   2.4705146679109E+00
(PID.TID 0000.0001) %MON exf_uwind_sd                 =   6.6765594290151E+00
(PID.TID 0000.0001) %MON exf_uwind_del2               =   2.8411995010805E-03
(PID.TID 0000.0001) %MON exf_vwind_max                =   1.4442404592413E+01
(PID.TID 0000.0001) %MON exf_vwind_min                =  -1.2781136639632E+01
(PID.TID 0000.0001) %MON exf_vwind_mean               =   8.5436505354491E-01
(PID.TID 0000.0001) %MON exf_vwind_sd                 =   5.1969241312160E+00
(PID.TID 0000.0001) %MON exf_vwind_del2               =   2.0929632315654E-03
(PID.TID 0000.0001) %MON exf_wspeed_max               =   2.0434415958673E+01
(PID.TID 0000.0001) %MON exf_wspeed_min               =   2.0722656809290E-02
(PID.TID 0000.0001) %MON exf_wspeed_mean              =   7.7289690179430E+00
(PID.TID 0000.0001) %MON exf_wspeed_sd                =   4.3221391143210E+00
(PID.TID 0000.0001) %MON exf_wspeed_del2              =   3.5285593256118E-03
(PID.TID 0000.0001) %MON exf_atemp_max                =   2.9816903501159E+02
(PID.TID 0000.0001) %MON exf_atemp_min                =   2.7444935384107E+02
(PID.TID 0000.0001) %MON exf_atemp_mean               =   2.9068966196870E+02
(PID.TID 0000.0001) %MON exf_atemp_sd                 =   3.9435706603967E+00
(PID.TID 0000.0001) %MON exf_atemp_del2               =   6.8447098796181E-03
(PID.TID 0000.0001) %MON exf_aqh_max                  =   1.6794530329835E-02
(PID.TID 0000.0001) %MON exf_aqh_min                  =   2.7308841414245E-03
(PID.TID 0000.0001) %MON exf_aqh_mean                 =   9.4240198902872E-03
(PID.TID 0000.0001) %MON exf_aqh_sd                   =   2.8724836765692E-03
(PID.TID 0000.0001) %MON exf_aqh_del2                 =   3.7513295547110E-06
(PID.TID 0000.0001) %MON exf_lwflux_max               =   1.5068737871059E+02
(PID.TID 0000.0001) %MON exf_lwflux_min               =   1.1240466384414E+01
(PID.TID 0000.0001) %MON exf_lwflux_mean              =   6.8144851590654E+01
(PID.TID 0000.0001) %MON exf_lwflux_sd                =   2.2436267606279E+01
(PID.TID 0000.0001) %MON exf_lwflux_del2              =   2.7554711063948E-02
(PID.TID 0000.0001) %MON exf_evap_max                 =   2.7339733638117E-07
(PID.TID 0000.0001) %MON exf_evap_min                 =  -9.2580013519188E-08
(PID.TID 0000.0001) %MON exf_evap_mean                =   5.9367446352441E-08
(PID.TID 0000.0001) %MON exf_evap_sd                  =   4.2139323658684E-08
(PID.TID 0000.0001) %MON exf_evap_del2                =   2.8590238613611E-11
(PID.TID 0000.0001) %MON exf_precip_max               =   1.4451136385994E-06
(PID.TID 0000.0001) %MON exf_precip_min               =   0.0000000000000E+00
(PID.TID 0000.0001) %MON exf_precip_mean              =   4.3469405978828E-08
(PID.TID 0000.0001) %MON exf_precip_sd                =   1.1052624745011E-07
(PID.TID 0000.0001) %MON exf_precip_del2              =   4.7937600306997E-11
(PID.TID 0000.0001) %MON exf_swflux_max               =   0.0000000000000E+00
(PID.TID 0000.0001) %MON exf_swflux_min               =   0.0000000000000E+00
(PID.TID 0000.0001) %MON exf_swflux_mean              =   0.0000000000000E+00
(PID.TID 0000.0001) %MON exf_swflux_sd                =   0.0000000000000E+00
(PID.TID 0000.0001) %MON exf_swflux_del2              =   0.0000000000000E+00
(PID.TID 0000.0001) %MON exf_swdown_max               =   0.0000000000000E+00
(PID.TID 0000.0001) %MON exf_swdown_min               =   0.0000000000000E+00
(PID.TID 0000.0001) %MON exf_swdown_mean              =   0.0000000000000E+00
(PID.TID 0000.0001) %MON exf_swdown_sd                =   0.0000000000000E+00
(PID.TID 0000.0001) %MON exf_swdown_del2              =   0.0000000000000E+00
(PID.TID 0000.0001) %MON exf_lwdown_max               =   4.0121792842509E+02
(PID.TID 0000.0001) %MON exf_lwdown_min               =   2.2846849151524E+02
(PID.TID 0000.0001) %MON exf_lwdown_mean              =   3.4683597144715E+02
(PID.TID 0000.0001) %MON exf_lwdown_sd                =   2.7582523170917E+01
(PID.TID 0000.0001) %MON exf_lwdown_del2              =   1.3418033850420E-01
(PID.TID 0000.0001) %MON exf_apressure_max            =   1.0279144996075E+05
(PID.TID 0000.0001) %MON exf_apressure_min            =   9.9993666812272E+04
(PID.TID 0000.0001) %MON exf_apressure_mean           =   1.0216218800660E+05
(PID.TID 0000.0001) %MON exf_apressure_sd             =   4.9961757351804E+02
(PID.TID 0000.0001) %MON exf_apressure_del2           =   3.9518486342875E+01
(PID.TID 0000.0001) %MON exf_runoff_max               =   4.4374791284855E-08
(PID.TID 0000.0001) %MON exf_runoff_min               =   0.0000000000000E+00
(PID.TID 0000.0001) %MON exf_runoff_mean              =   1.5884794052194E-09
(PID.TID 0000.0001) %MON exf_runoff_sd                =   5.3901957917178E-09
(PID.TID 0000.0001) %MON exf_runoff_del2              =   2.2191214937507E-12
(PID.TID 0000.0001) // =======================================================
(PID.TID 0000.0001) // End MONITOR EXF statistics
(PID.TID 0000.0001) // =======================================================
 cg2d: Sum(rhs),rhsMax =   4.11918970188066E+02  2.56754331164503E-01
(PID.TID 0000.0001)      cg2d_init_res =   1.77769907583808E+00
(PID.TID 0000.0001)      cg2d_iters(min,last) =      -1     316
(PID.TID 0000.0001)      cg2d_last_res =   6.46632063241350E-12
(PID.TID 0000.0001) // =======================================================
(PID.TID 0000.0001) // Begin MONITOR dynamic field statistics
(PID.TID 0000.0001) // =======================================================
(PID.TID 0000.0001) %MON time_tsnumber                =                     5
(PID.TID 0000.0001) %MON time_secondsf                =   1.2000000000000E+03
(PID.TID 0000.0001) %MON dynstat_eta_max              =   1.3984452757383E+00
(PID.TID 0000.0001) %MON dynstat_eta_min              =  -7.7041102966724E-01
(PID.TID 0000.0001) %MON dynstat_eta_mean             =  -1.4008170062039E-02
(PID.TID 0000.0001) %MON dynstat_eta_sd               =   1.5387149688402E-01
(PID.TID 0000.0001) %MON dynstat_eta_del2             =   2.4154500079952E-06
(PID.TID 0000.0001) %MON dynstat_uvel_max             =   1.2976185529492E+00
(PID.TID 0000.0001) %MON dynstat_uvel_min             =  -7.0540032476571E-01
(PID.TID 0000.0001) %MON dynstat_uvel_mean            =   3.1602469773838E-03
(PID.TID 0000.0001) %MON dynstat_uvel_sd              =   5.2372446893960E-02
(PID.TID 0000.0001) %MON dynstat_uvel_del2            =   4.6556854192905E-07
(PID.TID 0000.0001) %MON dynstat_vvel_max             =   1.8406381755028E+00
(PID.TID 0000.0001) %MON dynstat_vvel_min             =  -9.0650517811612E-01
(PID.TID 0000.0001) %MON dynstat_vvel_mean            =  -5.3001722955666E-03
(PID.TID 0000.0001) %MON dynstat_vvel_sd              =   4.8006195919172E-02
(PID.TID 0000.0001) %MON dynstat_vvel_del2            =   4.2904067571397E-07
(PID.TID 0000.0001) %MON dynstat_wvel_max             =   3.6941439716806E-02
(PID.TID 0000.0001) %MON dynstat_wvel_min             =  -3.1008410378265E-02
(PID.TID 0000.0001) %MON dynstat_wvel_mean            =  -7.0399125332367E-06
(PID.TID 0000.0001) %MON dynstat_wvel_sd              =   5.8526245697262E-04
(PID.TID 0000.0001) %MON dynstat_wvel_del2            =   8.0671084468140E-08
(PID.TID 0000.0001) %MON dynstat_theta_max            =   2.6140355747824E+01
(PID.TID 0000.0001) %MON dynstat_theta_min            =   1.4688643797582E+00
(PID.TID 0000.0001) %MON dynstat_theta_mean           =   5.5099000996579E+00
(PID.TID 0000.0001) %MON dynstat_theta_sd             =   4.7735309707949E+00
(PID.TID 0000.0001) %MON dynstat_theta_del2           =   3.9906351232550E-06
(PID.TID 0000.0001) %MON dynstat_salt_max             =   3.9176411682438E+01
(PID.TID 0000.0001) %MON dynstat_salt_min             =   3.3092683835140E+01
(PID.TID 0000.0001) %MON dynstat_salt_mean            =   3.5173375312102E+01
(PID.TID 0000.0001) %MON dynstat_salt_sd              =   3.7892656751621E-01
(PID.TID 0000.0001) %MON dynstat_salt_del2            =   5.0221819953066E-07
(PID.TID 0000.0001) %MON forcing_qnet_max             =   1.1612084734864E+03
(PID.TID 0000.0001) %MON forcing_qnet_min             =  -2.7340665884553E+02
(PID.TID 0000.0001) %MON forcing_qnet_mean            =   2.4435552751779E+02
(PID.TID 0000.0001) %MON forcing_qnet_sd              =   1.4413525708531E+02
(PID.TID 0000.0001) %MON forcing_qnet_del2            =   1.6761691101953E-03
(PID.TID 0000.0001) %MON forcing_qsw_max              =   0.0000000000000E+00
(PID.TID 0000.0001) %MON forcing_qsw_min              =   0.0000000000000E+00
(PID.TID 0000.0001) %MON forcing_qsw_mean             =   0.0000000000000E+00
(PID.TID 0000.0001) %MON forcing_qsw_sd               =   0.0000000000000E+00
(PID.TID 0000.0001) %MON forcing_qsw_del2             =   0.0000000000000E+00
(PID.TID 0000.0001) %MON forcing_empmr_max            =   2.5934628979527E-04
(PID.TID 0000.0001) %MON forcing_empmr_min            =  -1.2714458049138E-03
(PID.TID 0000.0001) %MON forcing_empmr_mean           =   1.4309560968394E-05
(PID.TID 0000.0001) %MON forcing_empmr_sd             =   1.0961565207326E-04
(PID.TID 0000.0001) %MON forcing_empmr_del2           =   2.7833799533043E-09
(PID.TID 0000.0001) %MON forcing_fu_max               =   8.3411317336452E-01
(PID.TID 0000.0001) %MON forcing_fu_min               =  -4.1938789494165E-01
(PID.TID 0000.0001) %MON forcing_fu_mean              =   6.3017591964930E-02
(PID.TID 0000.0001) %MON forcing_fu_sd                =   1.5551959555994E-01
(PID.TID 0000.0001) %MON forcing_fu_del2              =   3.5146664696794E-07
(PID.TID 0000.0001) %MON forcing_fv_max               =   3.9599400784087E-01
(PID.TID 0000.0001) %MON forcing_fv_min               =  -5.6791764575817E-01
(PID.TID 0000.0001) %MON forcing_fv_mean              =   1.0697433667511E-02
(PID.TID 0000.0001) %MON forcing_fv_sd                =   1.0201897277771E-01
(PID.TID 0000.0001) %MON forcing_fv_del2              =   2.5601771909209E-07
(PID.TID 0000.0001) %MON trAdv_CFL_u_max              =   7.8727507551082E-02
(PID.TID 0000.0001) %MON trAdv_CFL_v_max              =   1.1677184210920E-01
(PID.TID 0000.0001) %MON trAdv_CFL_w_max              =   4.5622193592882E-01
(PID.TID 0000.0001) %MON advcfl_uvel_max              =   7.8727506479136E-02
(PID.TID 0000.0001) %MON advcfl_vvel_max              =   1.1680617755760E-01
(PID.TID 0000.0001) %MON advcfl_wvel_max              =   4.5757571021941E-01
(PID.TID 0000.0001) %MON advcfl_W_hf_max              =   4.5893754269030E-01
(PID.TID 0000.0001) %MON pe_b_mean                    =  -3.1505159640565E-04
(PID.TID 0000.0001) %MON ke_max                       =   1.6962250392904E+00
(PID.TID 0000.0001) %MON ke_mean                      =   2.5239618040543E-03
(PID.TID 0000.0001) %MON ke_vol                       =   4.5818637279721E+16
(PID.TID 0000.0001) %MON vort_r_min                   =  -5.2818208954772E-04
(PID.TID 0000.0001) %MON vort_r_max                   =   4.8605091415767E-04
(PID.TID 0000.0001) %MON vort_a_mean                  =   8.2147611594071E-05
(PID.TID 0000.0001) %MON vort_a_sd                    =   1.0125872610498E-05
(PID.TID 0000.0001) %MON vort_p_mean                  =   8.4848832525236E-05
(PID.TID 0000.0001) %MON vort_p_sd                    =   3.4987315916532E-05
(PID.TID 0000.0001) %MON surfExpan_theta_mean         =  -1.1883468514317E-04
(PID.TID 0000.0001) %MON surfExpan_salt_mean          =  -3.3697829214449E-04
(PID.TID 0000.0001) // =======================================================
(PID.TID 0000.0001) // End MONITOR dynamic field statistics
(PID.TID 0000.0001) // =======================================================
(PID.TID 0000.0001) // =======================================================
(PID.TID 0000.0001) // Begin OBCS MONITOR field statistics
(PID.TID 0000.0001) // =======================================================
(PID.TID 0000.0001) %MON obc_N_vVel_max               =   6.7740130725327E-01
(PID.TID 0000.0001) %MON obc_N_vVel_min               =  -7.0545566105802E-01
(PID.TID 0000.0001) %MON obc_N_vVel_mean              =  -6.3664618197084E-03
(PID.TID 0000.0001) %MON obc_N_vVel_sd                =   6.2812426676639E-02
(PID.TID 0000.0001) %MON obc_N_vVel_Int               =  -9.1136438677498E+07
(PID.TID 0000.0001) %MON obc_S_vVel_max               =   1.5899497535159E+00
(PID.TID 0000.0001) %MON obc_S_vVel_min               =  -2.5593284233826E-01
(PID.TID 0000.0001) %MON obc_S_vVel_mean              =  -6.5676180141110E-03
(PID.TID 0000.0001) %MON obc_S_vVel_sd                =   3.6986053061788E-02
(PID.TID 0000.0001) %MON obc_S_vVel_Int               =  -1.9993733629366E+08
(PID.TID 0000.0001) %MON obc_N_theta_max              =   1.6390420534228E+01
(PID.TID 0000.0001) %MON obc_N_theta_min              =   1.8895909723125E+00
(PID.TID 0000.0001) %MON obc_N_theta_mean             =   5.1589435811386E+00
(PID.TID 0000.0001) %MON obc_N_theta_sd               =   3.4826874778161E+00
(PID.TID 0000.0001) %MON obc_S_theta_max              =   2.5544427564909E+01
(PID.TID 0000.0001) %MON obc_S_theta_min              =   1.4632976223230E+00
(PID.TID 0000.0001) %MON obc_S_theta_mean             =   5.4595537550886E+00
(PID.TID 0000.0001) %MON obc_S_theta_sd               =   5.3559176792685E+00
(PID.TID 0000.0001) %MON obc_N_salt_max               =   3.5910865606142E+01
(PID.TID 0000.0001) %MON obc_N_salt_min               =   3.3295041583212E+01
(PID.TID 0000.0001) %MON obc_N_salt_mean              =   3.5114562836417E+01
(PID.TID 0000.0001) %MON obc_N_salt_sd                =   3.0984873245969E-01
(PID.TID 0000.0001) %MON obc_S_salt_max               =   3.7318312208701E+01
(PID.TID 0000.0001) %MON obc_S_salt_min               =   3.4844694574919E+01
(PID.TID 0000.0001) %MON obc_S_salt_mean              =   3.5168372579251E+01
(PID.TID 0000.0001) %MON obc_S_salt_sd                =   4.5716935240398E-01
(PID.TID 0000.0001) // =======================================================
(PID.TID 0000.0001) // End OBCS MONITOR field statistics
(PID.TID 0000.0001) // =======================================================
(PID.TID 0000.0001) // =======================================================
(PID.TID 0000.0001) // Begin MONITOR EXF statistics
(PID.TID 0000.0001) // =======================================================
(PID.TID 0000.0001) %MON exf_tsnumber                 =                     5
(PID.TID 0000.0001) %MON exf_time_sec                 =   1.2000000000000E+03
(PID.TID 0000.0001) %MON exf_ustress_max              =   8.3528503715858E-01
(PID.TID 0000.0001) %MON exf_ustress_min              =  -4.1642566583692E-01
(PID.TID 0000.0001) %MON exf_ustress_mean             =   6.2981521158127E-02
(PID.TID 0000.0001) %MON exf_ustress_sd               =   1.5518405875339E-01
(PID.TID 0000.0001) %MON exf_ustress_del2             =   3.8506971758541E-07
(PID.TID 0000.0001) %MON exf_vstress_max              =   3.9309405122016E-01
(PID.TID 0000.0001) %MON exf_vstress_min              =  -5.6338071885708E-01
(PID.TID 0000.0001) %MON exf_vstress_mean             =   1.0742468824714E-02
(PID.TID 0000.0001) %MON exf_vstress_sd               =   1.0165173680448E-01
(PID.TID 0000.0001) %MON exf_vstress_del2             =   2.6810677103742E-07
(PID.TID 0000.0001) %MON exf_hflux_max                =   1.1473774653229E+03
(PID.TID 0000.0001) %MON exf_hflux_min                =  -2.7296658834953E+02
(PID.TID 0000.0001) %MON exf_hflux_mean               =   2.4162505035455E+02
(PID.TID 0000.0001) %MON exf_hflux_sd                 =   1.4122955230600E+02
(PID.TID 0000.0001) %MON exf_hflux_del2               =   1.0983499381921E-01
(PID.TID 0000.0001) %MON exf_sflux_max                =   2.5850119410535E-07
(PID.TID 0000.0001) %MON exf_sflux_min                =  -1.3964488521557E-06
(PID.TID 0000.0001) %MON exf_sflux_mean               =   1.5194677346202E-08
(PID.TID 0000.0001) %MON exf_sflux_sd                 =   1.1564615349997E-07
(PID.TID 0000.0001) %MON exf_sflux_del2               =   4.6471686879511E-11
(PID.TID 0000.0001) %MON exf_uwind_max                =   1.9574033804882E+01
(PID.TID 0000.0001) %MON exf_uwind_min                =  -1.4999248759652E+01
(PID.TID 0000.0001) %MON exf_uwind_mean               =   2.4722212406440E+00
(PID.TID 0000.0001) %MON exf_uwind_sd                 =   6.6728549023359E+00
(PID.TID 0000.0001) %MON exf_uwind_del2               =   2.8400318762782E-03
(PID.TID 0000.0001) %MON exf_vwind_max                =   1.4393538532471E+01
(PID.TID 0000.0001) %MON exf_vwind_min                =  -1.2771545061984E+01
(PID.TID 0000.0001) %MON exf_vwind_mean               =   8.5672009393831E-01
(PID.TID 0000.0001) %MON exf_vwind_sd                 =   5.1896659353588E+00
(PID.TID 0000.0001) %MON exf_vwind_del2               =   2.0905386446425E-03
(PID.TID 0000.0001) %MON exf_wspeed_max               =   2.0392347745763E+01
(PID.TID 0000.0001) %MON exf_wspeed_min               =   7.9698971861560E-03
(PID.TID 0000.0001) %MON exf_wspeed_mean              =   7.7229482960559E+00
(PID.TID 0000.0001) %MON exf_wspeed_sd                =   4.3199006778800E+00
(PID.TID 0000.0001) %MON exf_wspeed_del2              =   3.5261934536586E-03
(PID.TID 0000.0001) %MON exf_atemp_max                =   2.9816683772317E+02
(PID.TID 0000.0001) %MON exf_atemp_min                =   2.7442375263243E+02
(PID.TID 0000.0001) %MON exf_atemp_mean               =   2.9068654076250E+02
(PID.TID 0000.0001) %MON exf_atemp_sd                 =   3.9434619743398E+00
(PID.TID 0000.0001) %MON exf_atemp_del2               =   6.8434714431344E-03
(PID.TID 0000.0001) %MON exf_aqh_max                  =   1.6787544028961E-02
(PID.TID 0000.0001) %MON exf_aqh_min                  =   2.7285894436605E-03
(PID.TID 0000.0001) %MON exf_aqh_mean                 =   9.4228317374731E-03
(PID.TID 0000.0001) %MON exf_aqh_sd                   =   2.8724955205138E-03
(PID.TID 0000.0001) %MON exf_aqh_del2                 =   3.7507960278560E-06
(PID.TID 0000.0001) %MON exf_lwflux_max               =   1.5058637905984E+02
(PID.TID 0000.0001) %MON exf_lwflux_min               =   7.2576630807030E+00
(PID.TID 0000.0001) %MON exf_lwflux_mean              =   6.7368390788575E+01
(PID.TID 0000.0001) %MON exf_lwflux_sd                =   2.3459923420888E+01
(PID.TID 0000.0001) %MON exf_lwflux_del2              =   2.7394389556223E-02
(PID.TID 0000.0001) %MON exf_evap_max                 =   2.7488639674979E-07
(PID.TID 0000.0001) %MON exf_evap_min                 =  -9.3282404714155E-08
(PID.TID 0000.0001) %MON exf_evap_mean                =   5.9328696901401E-08
(PID.TID 0000.0001) %MON exf_evap_sd                  =   4.2091658609618E-08
(PID.TID 0000.0001) %MON exf_evap_del2                =   2.8571503266864E-11
(PID.TID 0000.0001) %MON exf_precip_max               =   1.5707756941297E-06
(PID.TID 0000.0001) %MON exf_precip_min               =   0.0000000000000E+00
(PID.TID 0000.0001) %MON exf_precip_mean              =   4.2545540149979E-08
(PID.TID 0000.0001) %MON exf_precip_sd                =   1.1790919939009E-07
(PID.TID 0000.0001) %MON exf_precip_del2              =   5.0678369502666E-11
(PID.TID 0000.0001) %MON exf_swflux_max               =   0.0000000000000E+00
(PID.TID 0000.0001) %MON exf_swflux_min               =   0.0000000000000E+00
(PID.TID 0000.0001) %MON exf_swflux_mean              =   0.0000000000000E+00
(PID.TID 0000.0001) %MON exf_swflux_sd                =   0.0000000000000E+00
(PID.TID 0000.0001) %MON exf_swflux_del2              =   0.0000000000000E+00
(PID.TID 0000.0001) %MON exf_swdown_max               =   0.0000000000000E+00
(PID.TID 0000.0001) %MON exf_swdown_min               =   0.0000000000000E+00
(PID.TID 0000.0001) %MON exf_swdown_mean              =   0.0000000000000E+00
(PID.TID 0000.0001) %MON exf_swdown_sd                =   0.0000000000000E+00
(PID.TID 0000.0001) %MON exf_swdown_del2              =   0.0000000000000E+00
(PID.TID 0000.0001) %MON exf_lwdown_max               =   4.0522098466867E+02
(PID.TID 0000.0001) %MON exf_lwdown_min               =   2.2767370597179E+02
(PID.TID 0000.0001) %MON exf_lwdown_mean              =   3.4763002542741E+02
(PID.TID 0000.0001) %MON exf_lwdown_sd                =   2.8649240414861E+01
(PID.TID 0000.0001) %MON exf_lwdown_del2              =   1.3452484309508E-01
(PID.TID 0000.0001) %MON exf_apressure_max            =   1.0279296099314E+05
(PID.TID 0000.0001) %MON exf_apressure_min            =   9.9998241534199E+04
(PID.TID 0000.0001) %MON exf_apressure_mean           =   1.0216296531315E+05
(PID.TID 0000.0001) %MON exf_apressure_sd             =   4.9937521608735E+02
(PID.TID 0000.0001) %MON exf_apressure_del2           =   3.9518793508396E+01
(PID.TID 0000.0001) %MON exf_runoff_max               =   4.4374791284855E-08
(PID.TID 0000.0001) %MON exf_runoff_min               =   0.0000000000000E+00
(PID.TID 0000.0001) %MON exf_runoff_mean              =   1.5884794052194E-09
(PID.TID 0000.0001) %MON exf_runoff_sd                =   5.3901957917178E-09
(PID.TID 0000.0001) %MON exf_runoff_del2              =   2.2191214937507E-12
(PID.TID 0000.0001) // =======================================================
(PID.TID 0000.0001) // End MONITOR EXF statistics
(PID.TID 0000.0001) // =======================================================
 cg2d: Sum(rhs),rhsMax =   4.72463392263264E+02  2.57961379941079E-01
(PID.TID 0000.0001)      cg2d_init_res =   1.55152515182243E+00
(PID.TID 0000.0001)      cg2d_iters(min,last) =      -1     315
(PID.TID 0000.0001)      cg2d_last_res =   6.55607073685149E-12
(PID.TID 0000.0001) // =======================================================
(PID.TID 0000.0001) // Begin MONITOR dynamic field statistics
(PID.TID 0000.0001) // =======================================================
(PID.TID 0000.0001) %MON time_tsnumber                =                     6
(PID.TID 0000.0001) %MON time_secondsf                =   1.4400000000000E+03
(PID.TID 0000.0001) %MON dynstat_eta_max              =   1.4175422441316E+00
(PID.TID 0000.0001) %MON dynstat_eta_min              =  -8.0250685697249E-01
(PID.TID 0000.0001) %MON dynstat_eta_mean             =  -1.6067110344275E-02
(PID.TID 0000.0001) %MON dynstat_eta_sd               =   1.6881294388366E-01
(PID.TID 0000.0001) %MON dynstat_eta_del2             =   2.3061082822764E-06
(PID.TID 0000.0001) %MON dynstat_uvel_max             =   1.2994176354970E+00
(PID.TID 0000.0001) %MON dynstat_uvel_min             =  -7.0561482815605E-01
(PID.TID 0000.0001) %MON dynstat_uvel_mean            =   2.8836026274449E-03
(PID.TID 0000.0001) %MON dynstat_uvel_sd              =   5.2353607549657E-02
(PID.TID 0000.0001) %MON dynstat_uvel_del2            =   4.7074982775735E-07
(PID.TID 0000.0001) %MON dynstat_vvel_max             =   1.8523227616177E+00
(PID.TID 0000.0001) %MON dynstat_vvel_min             =  -9.0982673552512E-01
(PID.TID 0000.0001) %MON dynstat_vvel_mean            =  -6.1346354507584E-03
(PID.TID 0000.0001) %MON dynstat_vvel_sd              =   4.8040243551076E-02
(PID.TID 0000.0001) %MON dynstat_vvel_del2            =   4.3489678112696E-07
(PID.TID 0000.0001) %MON dynstat_wvel_max             =   3.6521386518349E-02
(PID.TID 0000.0001) %MON dynstat_wvel_min             =  -3.0053012559189E-02
(PID.TID 0000.0001) %MON dynstat_wvel_mean            =  -6.4079776580854E-06
(PID.TID 0000.0001) %MON dynstat_wvel_sd              =   5.8480109977365E-04
(PID.TID 0000.0001) %MON dynstat_wvel_del2            =   7.6643665688786E-08
(PID.TID 0000.0001) %MON dynstat_theta_max            =   2.6140046710861E+01
(PID.TID 0000.0001) %MON dynstat_theta_min            =   1.4688644978601E+00
(PID.TID 0000.0001) %MON dynstat_theta_mean           =   5.5098984791778E+00
(PID.TID 0000.0001) %MON dynstat_theta_sd             =   4.7735178132106E+00
(PID.TID 0000.0001) %MON dynstat_theta_del2           =   3.9930206023896E-06
(PID.TID 0000.0001) %MON dynstat_salt_max             =   3.9173654110154E+01
(PID.TID 0000.0001) %MON dynstat_salt_min             =   3.3093450564694E+01
(PID.TID 0000.0001) %MON dynstat_salt_mean            =   3.5173374940863E+01
(PID.TID 0000.0001) %MON dynstat_salt_sd              =   3.7892694672560E-01
(PID.TID 0000.0001) %MON dynstat_salt_del2            =   5.0587228168359E-07
(PID.TID 0000.0001) %MON forcing_qnet_max             =   1.1647093974426E+03
(PID.TID 0000.0001) %MON forcing_qnet_min             =  -2.7794483379130E+02
(PID.TID 0000.0001) %MON forcing_qnet_mean            =   2.4356109654746E+02
(PID.TID 0000.0001) %MON forcing_qnet_sd              =   1.4339214812577E+02
(PID.TID 0000.0001) %MON forcing_qnet_del2            =   1.6794938334525E-03
(PID.TID 0000.0001) %MON forcing_qsw_max              =   0.0000000000000E+00
(PID.TID 0000.0001) %MON forcing_qsw_min              =   0.0000000000000E+00
(PID.TID 0000.0001) %MON forcing_qsw_mean             =   0.0000000000000E+00
(PID.TID 0000.0001) %MON forcing_qsw_sd               =   0.0000000000000E+00
(PID.TID 0000.0001) %MON forcing_qsw_del2             =   0.0000000000000E+00
(PID.TID 0000.0001) %MON forcing_empmr_max            =   2.5850119410535E-04
(PID.TID 0000.0001) %MON forcing_empmr_min            =  -1.3964488521557E-03
(PID.TID 0000.0001) %MON forcing_empmr_mean           =   1.5194677346202E-05
(PID.TID 0000.0001) %MON forcing_empmr_sd             =   1.1564615349997E-04
(PID.TID 0000.0001) %MON forcing_empmr_del2           =   2.9487228738180E-09
(PID.TID 0000.0001) %MON forcing_fu_max               =   8.3403197835330E-01
(PID.TID 0000.0001) %MON forcing_fu_min               =  -4.1642134924965E-01
(PID.TID 0000.0001) %MON forcing_fu_mean              =   6.3039445815466E-02
(PID.TID 0000.0001) %MON forcing_fu_sd                =   1.5524347601363E-01
(PID.TID 0000.0001) %MON forcing_fu_del2              =   3.4342084431111E-07
(PID.TID 0000.0001) %MON forcing_fv_max               =   3.9262150302915E-01
(PID.TID 0000.0001) %MON forcing_fv_min               =  -5.6666120479131E-01
(PID.TID 0000.0001) %MON forcing_fv_mean              =   1.0723727199702E-02
(PID.TID 0000.0001) %MON forcing_fv_sd                =   1.0178213536019E-01
(PID.TID 0000.0001) %MON forcing_fv_del2              =   2.4792581560084E-07
(PID.TID 0000.0001) %MON trAdv_CFL_u_max              =   7.8836659261763E-02
(PID.TID 0000.0001) %MON trAdv_CFL_v_max              =   1.1752793607192E-01
(PID.TID 0000.0001) %MON trAdv_CFL_w_max              =   4.8645462286636E-01
(PID.TID 0000.0001) %MON advcfl_uvel_max              =   7.8836658188331E-02
(PID.TID 0000.0001) %MON advcfl_vvel_max              =   1.1756249384125E-01
(PID.TID 0000.0001) %MON advcfl_wvel_max              =   4.8268365679762E-01
(PID.TID 0000.0001) %MON advcfl_W_hf_max              =   4.8645462286636E-01
(PID.TID 0000.0001) %MON pe_b_mean                    =  -3.5956291991468E-04
(PID.TID 0000.0001) %MON ke_max                       =   1.7177214447703E+00
(PID.TID 0000.0001) %MON ke_mean                      =   2.5285259772046E-03
(PID.TID 0000.0001) %MON ke_vol                       =   4.5818637279721E+16
(PID.TID 0000.0001) %MON vort_r_min                   =  -5.4129391494258E-04
(PID.TID 0000.0001) %MON vort_r_max                   =   4.9918050450017E-04
(PID.TID 0000.0001) %MON vort_a_mean                  =   8.2147611777168E-05
(PID.TID 0000.0001) %MON vort_a_sd                    =   1.0128346872330E-05
(PID.TID 0000.0001) %MON vort_p_mean                  =   8.4848832714354E-05
(PID.TID 0000.0001) %MON vort_p_sd                    =   3.4989349074515E-05
(PID.TID 0000.0001) %MON surfExpan_theta_mean         =  -8.5618644702114E-05
(PID.TID 0000.0001) %MON surfExpan_salt_mean          =  -2.9794043691328E-04
(PID.TID 0000.0001) // =======================================================
(PID.TID 0000.0001) // End MONITOR dynamic field statistics
(PID.TID 0000.0001) // =======================================================
(PID.TID 0000.0001) // =======================================================
(PID.TID 0000.0001) // Begin OBCS MONITOR field statistics
(PID.TID 0000.0001) // =======================================================
(PID.TID 0000.0001) %MON obc_N_vVel_max               =   6.7726669224026E-01
(PID.TID 0000.0001) %MON obc_N_vVel_min               =  -7.0705041700264E-01
(PID.TID 0000.0001) %MON obc_N_vVel_mean              =  -6.4856799981993E-03
(PID.TID 0000.0001) %MON obc_N_vVel_sd                =   6.2822659001865E-02
(PID.TID 0000.0001) %MON obc_N_vVel_Int               =  -9.2843056972080E+07
(PID.TID 0000.0001) %MON obc_S_vVel_max               =   1.5908159112852E+00
(PID.TID 0000.0001) %MON obc_S_vVel_min               =  -2.5581038503334E-01
(PID.TID 0000.0001) %MON obc_S_vVel_mean              =  -6.2345372098892E-03
(PID.TID 0000.0001) %MON obc_S_vVel_sd                =   3.6987313293380E-02
(PID.TID 0000.0001) %MON obc_S_vVel_Int               =  -1.8979739078776E+08
(PID.TID 0000.0001) %MON obc_N_theta_max              =   1.6390332432041E+01
(PID.TID 0000.0001) %MON obc_N_theta_min              =   1.8895910213779E+00
(PID.TID 0000.0001) %MON obc_N_theta_mean             =   5.1589361969886E+00
(PID.TID 0000.0001) %MON obc_N_theta_sd               =   3.4826781859977E+00
(PID.TID 0000.0001) %MON obc_S_theta_max              =   2.5544324816130E+01
(PID.TID 0000.0001) %MON obc_S_theta_min              =   1.4632980186102E+00
(PID.TID 0000.0001) %MON obc_S_theta_mean             =   5.4595529500640E+00
(PID.TID 0000.0001) %MON obc_S_theta_sd               =   5.3559138080854E+00
(PID.TID 0000.0001) %MON obc_N_salt_max               =   3.5910865197779E+01
(PID.TID 0000.0001) %MON obc_N_salt_min               =   3.3295047085845E+01
(PID.TID 0000.0001) %MON obc_N_salt_mean              =   3.5114562540430E+01
(PID.TID 0000.0001) %MON obc_N_salt_sd                =   3.0984861316313E-01
(PID.TID 0000.0001) %MON obc_S_salt_max               =   3.7318305324317E+01
(PID.TID 0000.0001) %MON obc_S_salt_min               =   3.4844694627139E+01
(PID.TID 0000.0001) %MON obc_S_salt_mean              =   3.5168372507335E+01
(PID.TID 0000.0001) %MON obc_S_salt_sd                =   4.5716900132847E-01
(PID.TID 0000.0001) // =======================================================
(PID.TID 0000.0001) // End OBCS MONITOR field statistics
(PID.TID 0000.0001) // =======================================================
(PID.TID 0000.0001) // =======================================================
(PID.TID 0000.0001) // Begin MONITOR EXF statistics
(PID.TID 0000.0001) // =======================================================
(PID.TID 0000.0001) %MON exf_tsnumber                 =                     6
(PID.TID 0000.0001) %MON exf_time_sec                 =   1.4400000000000E+03
(PID.TID 0000.0001) %MON exf_ustress_max              =   8.3354549504841E-01
(PID.TID 0000.0001) %MON exf_ustress_min              =  -4.1357470340505E-01
(PID.TID 0000.0001) %MON exf_ustress_mean             =   6.3031469973054E-02
(PID.TID 0000.0001) %MON exf_ustress_sd               =   1.5499558266867E-01
(PID.TID 0000.0001) %MON exf_ustress_del2             =   3.8038523586210E-07
(PID.TID 0000.0001) %MON exf_vstress_max              =   3.9127350071680E-01
(PID.TID 0000.0001) %MON exf_vstress_min              =  -5.6239150950766E-01
(PID.TID 0000.0001) %MON exf_vstress_mean             =   1.0780263389931E-02
(PID.TID 0000.0001) %MON exf_vstress_sd               =   1.0149828751637E-01
(PID.TID 0000.0001) %MON exf_vstress_del2             =   2.6402053756123E-07
(PID.TID 0000.0001) %MON exf_hflux_max                =   1.1510130299668E+03
(PID.TID 0000.0001) %MON exf_hflux_min                =  -2.7764542033273E+02
(PID.TID 0000.0001) %MON exf_hflux_mean               =   2.4077974798654E+02
(PID.TID 0000.0001) %MON exf_hflux_sd                 =   1.4075342949985E+02
(PID.TID 0000.0001) %MON exf_hflux_del2               =   1.0945747777917E-01
(PID.TID 0000.0001) %MON exf_sflux_max                =   2.5770067583018E-07
(PID.TID 0000.0001) %MON exf_sflux_min                =  -1.5214567121382E-06
(PID.TID 0000.0001) %MON exf_sflux_mean               =   1.6089052459281E-08
(PID.TID 0000.0001) %MON exf_sflux_sd                 =   1.2268241624816E-07
(PID.TID 0000.0001) %MON exf_sflux_del2               =   4.9405154054949E-11
(PID.TID 0000.0001) %MON exf_uwind_max                =   1.9568050989802E+01
(PID.TID 0000.0001) %MON exf_uwind_min                =  -1.4965997954337E+01
(PID.TID 0000.0001) %MON exf_uwind_mean               =   2.4740296425611E+00
(PID.TID 0000.0001) %MON exf_uwind_sd                 =   6.6700574113406E+00
(PID.TID 0000.0001) %MON exf_uwind_del2               =   2.8392236361939E-03
(PID.TID 0000.0001) %MON exf_vwind_max                =   1.4372523771911E+01
(PID.TID 0000.0001) %MON exf_vwind_min                =  -1.2765730858512E+01
(PID.TID 0000.0001) %MON exf_vwind_mean               =   8.5904788996658E-01
(PID.TID 0000.0001) %MON exf_vwind_sd                 =   5.1840249176405E+00
(PID.TID 0000.0001) %MON exf_vwind_del2               =   2.0887602114717E-03
(PID.TID 0000.0001) %MON exf_wspeed_max               =   2.0353169184271E+01
(PID.TID 0000.0001) %MON exf_wspeed_min               =   1.2912840696127E-02
(PID.TID 0000.0001) %MON exf_wspeed_mean              =   7.7182201820579E+00
(PID.TID 0000.0001) %MON exf_wspeed_sd                =   4.3187548423242E+00
(PID.TID 0000.0001) %MON exf_wspeed_del2              =   3.5244968833487E-03
(PID.TID 0000.0001) %MON exf_atemp_max                =   2.9816464043476E+02
(PID.TID 0000.0001) %MON exf_atemp_min                =   2.7439815142379E+02
(PID.TID 0000.0001) %MON exf_atemp_mean               =   2.9068341955631E+02
(PID.TID 0000.0001) %MON exf_atemp_sd                 =   3.9434957823437E+00
(PID.TID 0000.0001) %MON exf_atemp_del2               =   6.8422467283737E-03
(PID.TID 0000.0001) %MON exf_aqh_max                  =   1.6780557728087E-02
(PID.TID 0000.0001) %MON exf_aqh_min                  =   2.7262947458965E-03
(PID.TID 0000.0001) %MON exf_aqh_mean                 =   9.4216435846591E-03
(PID.TID 0000.0001) %MON exf_aqh_sd                   =   2.8726801694255E-03
(PID.TID 0000.0001) %MON exf_aqh_del2                 =   3.7502842763471E-06
(PID.TID 0000.0001) %MON exf_lwflux_max               =   1.5056904713043E+02
(PID.TID 0000.0001) %MON exf_lwflux_min               =   3.2741232449119E+00
(PID.TID 0000.0001) %MON exf_lwflux_mean              =   6.6592552850768E+01
(PID.TID 0000.0001) %MON exf_lwflux_sd                =   2.4690491009823E+01
(PID.TID 0000.0001) %MON exf_lwflux_del2              =   2.7271327748629E-02
(PID.TID 0000.0001) %MON exf_evap_max                 =   2.7642644051155E-07
(PID.TID 0000.0001) %MON exf_evap_min                 =  -9.4001808505305E-08
(PID.TID 0000.0001) %MON exf_evap_mean                =   5.9299206185632E-08
(PID.TID 0000.0001) %MON exf_evap_sd                  =   4.2057513456450E-08
(PID.TID 0000.0001) %MON exf_evap_del2                =   2.8558995071321E-11
(PID.TID 0000.0001) %MON exf_precip_max               =   1.6964377496601E-06
(PID.TID 0000.0001) %MON exf_precip_min               =   0.0000000000000E+00
(PID.TID 0000.0001) %MON exf_precip_mean              =   4.1621674321131E-08
(PID.TID 0000.0001) %MON exf_precip_sd                =   1.2611994878121E-07
(PID.TID 0000.0001) %MON exf_precip_del2              =   5.3753981502031E-11
(PID.TID 0000.0001) %MON exf_swflux_max               =   0.0000000000000E+00
(PID.TID 0000.0001) %MON exf_swflux_min               =   0.0000000000000E+00
(PID.TID 0000.0001) %MON exf_swflux_mean              =   0.0000000000000E+00
(PID.TID 0000.0001) %MON exf_swflux_sd                =   0.0000000000000E+00
(PID.TID 0000.0001) %MON exf_swflux_del2              =   0.0000000000000E+00
(PID.TID 0000.0001) %MON exf_swdown_max               =   0.0000000000000E+00
(PID.TID 0000.0001) %MON exf_swdown_min               =   0.0000000000000E+00
(PID.TID 0000.0001) %MON exf_swdown_mean              =   0.0000000000000E+00
(PID.TID 0000.0001) %MON exf_swdown_sd                =   0.0000000000000E+00
(PID.TID 0000.0001) %MON exf_swdown_del2              =   0.0000000000000E+00
(PID.TID 0000.0001) %MON exf_lwdown_max               =   4.0922404091225E+02
(PID.TID 0000.0001) %MON exf_lwdown_min               =   2.2687892042835E+02
(PID.TID 0000.0001) %MON exf_lwdown_mean              =   3.4842407940767E+02
(PID.TID 0000.0001) %MON exf_lwdown_sd                =   2.9896536470828E+01
(PID.TID 0000.0001) %MON exf_lwdown_del2              =   1.3487661249190E-01
(PID.TID 0000.0001) %MON exf_apressure_max            =   1.0279447202553E+05
(PID.TID 0000.0001) %MON exf_apressure_min            =   1.0000228416919E+05
(PID.TID 0000.0001) %MON exf_apressure_mean           =   1.0216374261970E+05
(PID.TID 0000.0001) %MON exf_apressure_sd             =   4.9917253457380E+02
(PID.TID 0000.0001) %MON exf_apressure_del2           =   3.9519100755332E+01
(PID.TID 0000.0001) %MON exf_runoff_max               =   4.4374791284855E-08
(PID.TID 0000.0001) %MON exf_runoff_min               =   0.0000000000000E+00
(PID.TID 0000.0001) %MON exf_runoff_mean              =   1.5884794052194E-09
(PID.TID 0000.0001) %MON exf_runoff_sd                =   5.3901957917178E-09
(PID.TID 0000.0001) %MON exf_runoff_del2              =   2.2191214937507E-12
(PID.TID 0000.0001) // =======================================================
(PID.TID 0000.0001) // End MONITOR EXF statistics
(PID.TID 0000.0001) // =======================================================
 cg2d: Sum(rhs),rhsMax =   5.25536333838590E+02  2.33383077707636E-01
(PID.TID 0000.0001)      cg2d_init_res =   1.40703003852234E+00
(PID.TID 0000.0001)      cg2d_iters(min,last) =      -1     314
(PID.TID 0000.0001)      cg2d_last_res =   6.70559127960044E-12
(PID.TID 0000.0001) // =======================================================
(PID.TID 0000.0001) // Begin MONITOR dynamic field statistics
(PID.TID 0000.0001) // =======================================================
(PID.TID 0000.0001) %MON time_tsnumber                =                     7
(PID.TID 0000.0001) %MON time_secondsf                =   1.6800000000000E+03
(PID.TID 0000.0001) %MON dynstat_eta_max              =   1.3998735968749E+00
(PID.TID 0000.0001) %MON dynstat_eta_min              =  -8.5157506097446E-01
(PID.TID 0000.0001) %MON dynstat_eta_mean             =  -1.7871967233824E-02
(PID.TID 0000.0001) %MON dynstat_eta_sd               =   1.8166787542087E-01
(PID.TID 0000.0001) %MON dynstat_eta_del2             =   2.3506346422581E-06
(PID.TID 0000.0001) %MON dynstat_uvel_max             =   1.2999086368638E+00
(PID.TID 0000.0001) %MON dynstat_uvel_min             =  -7.0525475735748E-01
(PID.TID 0000.0001) %MON dynstat_uvel_mean            =   2.5735388927712E-03
(PID.TID 0000.0001) %MON dynstat_uvel_sd              =   5.2314917555203E-02
(PID.TID 0000.0001) %MON dynstat_uvel_del2            =   4.7833083847532E-07
(PID.TID 0000.0001) %MON dynstat_vvel_max             =   1.8615619514913E+00
(PID.TID 0000.0001) %MON dynstat_vvel_min             =  -9.1279431222289E-01
(PID.TID 0000.0001) %MON dynstat_vvel_mean            =  -6.9150750240235E-03
(PID.TID 0000.0001) %MON dynstat_vvel_sd              =   4.8089990401454E-02
(PID.TID 0000.0001) %MON dynstat_vvel_del2            =   4.4289324276963E-07
(PID.TID 0000.0001) %MON dynstat_wvel_max             =   3.6070564622235E-02
(PID.TID 0000.0001) %MON dynstat_wvel_min             =  -2.9015559107002E-02
(PID.TID 0000.0001) %MON dynstat_wvel_mean            =  -5.7682376877952E-06
(PID.TID 0000.0001) %MON dynstat_wvel_sd              =   5.8637794032425E-04
(PID.TID 0000.0001) %MON dynstat_wvel_del2            =   7.4706577969639E-08
(PID.TID 0000.0001) %MON dynstat_theta_max            =   2.6139744834794E+01
(PID.TID 0000.0001) %MON dynstat_theta_min            =   1.4688646023202E+00
(PID.TID 0000.0001) %MON dynstat_theta_mean           =   5.5098953306245E+00
(PID.TID 0000.0001) %MON dynstat_theta_sd             =   4.7735012224724E+00
(PID.TID 0000.0001) %MON dynstat_theta_del2           =   3.9953371320852E-06
(PID.TID 0000.0001) %MON dynstat_salt_max             =   3.9170611497248E+01
(PID.TID 0000.0001) %MON dynstat_salt_min             =   3.3094267231046E+01
(PID.TID 0000.0001) %MON dynstat_salt_mean            =   3.5173374473125E+01
(PID.TID 0000.0001) %MON dynstat_salt_sd              =   3.7892703090154E-01
(PID.TID 0000.0001) %MON dynstat_salt_del2            =   5.0969234594007E-07
(PID.TID 0000.0001) %MON forcing_qnet_max             =   1.1684459157832E+03
(PID.TID 0000.0001) %MON forcing_qnet_min             =  -2.8254473382173E+02
(PID.TID 0000.0001) %MON forcing_qnet_mean            =   2.4279700411891E+02
(PID.TID 0000.0001) %MON forcing_qnet_sd              =   1.4274343298024E+02
(PID.TID 0000.0001) %MON forcing_qnet_del2            =   1.6773520860425E-03
(PID.TID 0000.0001) %MON forcing_qsw_max              =   0.0000000000000E+00
(PID.TID 0000.0001) %MON forcing_qsw_min              =   0.0000000000000E+00
(PID.TID 0000.0001) %MON forcing_qsw_mean             =   0.0000000000000E+00
(PID.TID 0000.0001) %MON forcing_qsw_sd               =   0.0000000000000E+00
(PID.TID 0000.0001) %MON forcing_qsw_del2             =   0.0000000000000E+00
(PID.TID 0000.0001) %MON forcing_empmr_max            =   2.5770067583018E-04
(PID.TID 0000.0001) %MON forcing_empmr_min            =  -1.5214567121382E-03
(PID.TID 0000.0001) %MON forcing_empmr_mean           =   1.6089052459281E-05
(PID.TID 0000.0001) %MON forcing_empmr_sd             =   1.2268241624816E-04
(PID.TID 0000.0001) %MON forcing_empmr_del2           =   3.1387935864954E-09
(PID.TID 0000.0001) %MON forcing_fu_max               =   8.3249720639512E-01
(PID.TID 0000.0001) %MON forcing_fu_min               =  -4.1351814598541E-01
(PID.TID 0000.0001) %MON forcing_fu_mean              =   6.3089825588114E-02
(PID.TID 0000.0001) %MON forcing_fu_sd                =   1.5505519728563E-01
(PID.TID 0000.0001) %MON forcing_fu_del2              =   3.3893008155498E-07
(PID.TID 0000.0001) %MON forcing_fv_max               =   3.9079995107359E-01
(PID.TID 0000.0001) %MON forcing_fv_min               =  -5.6588123226255E-01
(PID.TID 0000.0001) %MON forcing_fv_mean              =   1.0761762594087E-02
(PID.TID 0000.0001) %MON forcing_fv_sd                =   1.0162907448556E-01
(PID.TID 0000.0001) %MON forcing_fv_del2              =   2.4385945245448E-07
(PID.TID 0000.0001) %MON trAdv_CFL_u_max              =   7.8866448689271E-02
(PID.TID 0000.0001) %MON trAdv_CFL_v_max              =   1.1811415297716E-01
(PID.TID 0000.0001) %MON trAdv_CFL_w_max              =   5.2163840965350E-01
(PID.TID 0000.0001) %MON advcfl_uvel_max              =   7.8866447615433E-02
(PID.TID 0000.0001) %MON advcfl_vvel_max              =   1.1814888311698E-01
(PID.TID 0000.0001) %MON advcfl_wvel_max              =   5.1759470105153E-01
(PID.TID 0000.0001) %MON advcfl_W_hf_max              =   5.2163840965350E-01
(PID.TID 0000.0001) %MON pe_b_mean                    =  -3.9817288573884E-04
(PID.TID 0000.0001) %MON ke_max                       =   1.7343960158777E+00
(PID.TID 0000.0001) %MON ke_mean                      =   2.5331212412728E-03
(PID.TID 0000.0001) %MON ke_vol                       =   4.5818637279721E+16
(PID.TID 0000.0001) %MON vort_r_min                   =  -5.5024419524365E-04
(PID.TID 0000.0001) %MON vort_r_max                   =   5.0965119614599E-04
(PID.TID 0000.0001) %MON vort_a_mean                  =   8.2147611975325E-05
(PID.TID 0000.0001) %MON vort_a_sd                    =   1.0131165085714E-05
(PID.TID 0000.0001) %MON vort_p_mean                  =   8.4848832919027E-05
(PID.TID 0000.0001) %MON vort_p_sd                    =   3.4992168057234E-05
(PID.TID 0000.0001) %MON surfExpan_theta_mean         =  -5.3672641215309E-05
(PID.TID 0000.0001) %MON surfExpan_salt_mean          =  -2.5899438166088E-04
(PID.TID 0000.0001) // =======================================================
(PID.TID 0000.0001) // End MONITOR dynamic field statistics
(PID.TID 0000.0001) // =======================================================
(PID.TID 0000.0001) // =======================================================
(PID.TID 0000.0001) // Begin OBCS MONITOR field statistics
(PID.TID 0000.0001) // =======================================================
(PID.TID 0000.0001) %MON obc_N_vVel_max               =   6.7713697616843E-01
(PID.TID 0000.0001) %MON obc_N_vVel_min               =  -7.0797418163452E-01
(PID.TID 0000.0001) %MON obc_N_vVel_mean              =  -6.5967629069141E-03
(PID.TID 0000.0001) %MON obc_N_vVel_sd                =   6.2830469732728E-02
(PID.TID 0000.0001) %MON obc_N_vVel_Int               =  -9.4433218192693E+07
(PID.TID 0000.0001) %MON obc_S_vVel_max               =   1.5916570556434E+00
(PID.TID 0000.0001) %MON obc_S_vVel_min               =  -2.5568997538285E-01
(PID.TID 0000.0001) %MON obc_S_vVel_mean              =  -5.8937522583932E-03
(PID.TID 0000.0001) %MON obc_S_vVel_sd                =   3.6987536178649E-02
(PID.TID 0000.0001) %MON obc_S_vVel_Int               =  -1.7942290869932E+08
(PID.TID 0000.0001) %MON obc_N_theta_max              =   1.6390244329854E+01
(PID.TID 0000.0001) %MON obc_N_theta_min              =   1.8895910704432E+00
(PID.TID 0000.0001) %MON obc_N_theta_mean             =   5.1589288128386E+00
(PID.TID 0000.0001) %MON obc_N_theta_sd               =   3.4826688944174E+00
(PID.TID 0000.0001) %MON obc_S_theta_max              =   2.5544222067351E+01
(PID.TID 0000.0001) %MON obc_S_theta_min              =   1.4632984148975E+00
(PID.TID 0000.0001) %MON obc_S_theta_mean             =   5.4595521450394E+00
(PID.TID 0000.0001) %MON obc_S_theta_sd               =   5.3559099369382E+00
(PID.TID 0000.0001) %MON obc_N_salt_max               =   3.5910864789416E+01
(PID.TID 0000.0001) %MON obc_N_salt_min               =   3.3295052588478E+01
(PID.TID 0000.0001) %MON obc_N_salt_mean              =   3.5114562244444E+01
(PID.TID 0000.0001) %MON obc_N_salt_sd                =   3.0984849389575E-01
(PID.TID 0000.0001) %MON obc_S_salt_max               =   3.7318298439933E+01
(PID.TID 0000.0001) %MON obc_S_salt_min               =   3.4844694679359E+01
(PID.TID 0000.0001) %MON obc_S_salt_mean              =   3.5168372435418E+01
(PID.TID 0000.0001) %MON obc_S_salt_sd                =   4.5716865026302E-01
(PID.TID 0000.0001) // =======================================================
(PID.TID 0000.0001) // End OBCS MONITOR field statistics
(PID.TID 0000.0001) // =======================================================
(PID.TID 0000.0001) // =======================================================
(PID.TID 0000.0001) // Begin MONITOR EXF statistics
(PID.TID 0000.0001) // =======================================================
(PID.TID 0000.0001) %MON exf_tsnumber                 =                     7
(PID.TID 0000.0001) %MON exf_time_sec                 =   1.6800000000000E+03
(PID.TID 0000.0001) %MON exf_ustress_max              =   8.3341593727246E-01
(PID.TID 0000.0001) %MON exf_ustress_min              =  -4.1079052312194E-01
(PID.TID 0000.0001) %MON exf_ustress_mean             =   6.3108394254351E-02
(PID.TID 0000.0001) %MON exf_ustress_sd               =   1.5488892191612E-01
(PID.TID 0000.0001) %MON exf_ustress_del2             =   3.7879988433551E-07
(PID.TID 0000.0001) %MON exf_vstress_max              =   3.9044237343018E-01
(PID.TID 0000.0001) %MON exf_vstress_min              =  -5.6185678452444E-01
(PID.TID 0000.0001) %MON exf_vstress_mean             =   1.0828132250027E-02
(PID.TID 0000.0001) %MON exf_vstress_sd               =   1.0142162812048E-01
(PID.TID 0000.0001) %MON exf_vstress_del2             =   2.6388488775435E-07
(PID.TID 0000.0001) %MON exf_hflux_max                =   1.1548781082403E+03
(PID.TID 0000.0001) %MON exf_hflux_min                =  -2.8238156433578E+02
(PID.TID 0000.0001) %MON exf_hflux_mean               =   2.3996141512043E+02
(PID.TID 0000.0001) %MON exf_hflux_sd                 =   1.4035428108811E+02
(PID.TID 0000.0001) %MON exf_hflux_del2               =   1.0910515904886E-01
(PID.TID 0000.0001) %MON exf_sflux_max                =   2.5694405464675E-07
(PID.TID 0000.0001) %MON exf_sflux_min                =  -1.6464736783654E-06
(PID.TID 0000.0001) %MON exf_sflux_mean               =   1.6992074960027E-08
(PID.TID 0000.0001) %MON exf_sflux_sd                 =   1.3056162906287E-07
(PID.TID 0000.0001) %MON exf_sflux_del2               =   5.2661986824283E-11
(PID.TID 0000.0001) %MON exf_uwind_max                =   1.9554685747864E+01
(PID.TID 0000.0001) %MON exf_uwind_min                =  -1.4933314692014E+01
(PID.TID 0000.0001) %MON exf_uwind_mean               =   2.4759153894706E+00
(PID.TID 0000.0001) %MON exf_uwind_sd                 =   6.6681056747921E+00
(PID.TID 0000.0001) %MON exf_uwind_del2               =   2.8387453661805E-03
(PID.TID 0000.0001) %MON exf_vwind_max                =   1.4375144735469E+01
(PID.TID 0000.0001) %MON exf_vwind_min                =  -1.2763875410276E+01
(PID.TID 0000.0001) %MON exf_vwind_mean               =   8.6134365237596E-01
(PID.TID 0000.0001) %MON exf_vwind_sd                 =   5.1799646657720E+00
(PID.TID 0000.0001) %MON exf_vwind_del2               =   2.0876120424399E-03
(PID.TID 0000.0001) %MON exf_wspeed_max               =   2.0319141395966E+01
(PID.TID 0000.0001) %MON exf_wspeed_min               =   1.0172399431952E-02
(PID.TID 0000.0001) %MON exf_wspeed_mean              =   7.7147361179984E+00
(PID.TID 0000.0001) %MON exf_wspeed_sd                =   4.3186321632895E+00
(PID.TID 0000.0001) %MON exf_wspeed_del2              =   3.5234359354434E-03
(PID.TID 0000.0001) %MON exf_atemp_max                =   2.9816244314634E+02
(PID.TID 0000.0001) %MON exf_atemp_min                =   2.7437255021515E+02
(PID.TID 0000.0001) %MON exf_atemp_mean               =   2.9068029835012E+02
(PID.TID 0000.0001) %MON exf_atemp_sd                 =   3.9436720807438E+00
(PID.TID 0000.0001) %MON exf_atemp_del2               =   6.8410357427056E-03
(PID.TID 0000.0001) %MON exf_aqh_max                  =   1.6773571427214E-02
(PID.TID 0000.0001) %MON exf_aqh_min                  =   2.7240000481325E-03
(PID.TID 0000.0001) %MON exf_aqh_mean                 =   9.4204554318450E-03
(PID.TID 0000.0001) %MON exf_aqh_sd                   =   2.8730375899859E-03
(PID.TID 0000.0001) %MON exf_aqh_del2                 =   3.7497943090998E-06
(PID.TID 0000.0001) %MON exf_lwflux_max               =   1.5197376802602E+02
(PID.TID 0000.0001) %MON exf_lwflux_min               =  -3.7856900620623E+00
(PID.TID 0000.0001) %MON exf_lwflux_mean              =   6.5817193427879E+01
(PID.TID 0000.0001) %MON exf_lwflux_sd                =   2.6098706529575E+01
(PID.TID 0000.0001) %MON exf_lwflux_del2              =   2.7185971346045E-02
(PID.TID 0000.0001) %MON exf_evap_max                 =   2.7801082284138E-07
(PID.TID 0000.0001) %MON exf_evap_min                 =  -9.4737215863184E-08
(PID.TID 0000.0001) %MON exf_evap_mean                =   5.9278362857529E-08
(PID.TID 0000.0001) %MON exf_evap_sd                  =   4.2035976269603E-08
(PID.TID 0000.0001) %MON exf_evap_del2                =   2.8552254512954E-11
(PID.TID 0000.0001) %MON exf_precip_max               =   1.8220998051905E-06
(PID.TID 0000.0001) %MON exf_precip_min               =   0.0000000000000E+00
(PID.TID 0000.0001) %MON exf_precip_mean              =   4.0697808492283E-08
(PID.TID 0000.0001) %MON exf_precip_sd                =   1.3500754762119E-07
(PID.TID 0000.0001) %MON exf_precip_del2              =   5.7110364197837E-11
(PID.TID 0000.0001) %MON exf_swflux_max               =   0.0000000000000E+00
(PID.TID 0000.0001) %MON exf_swflux_min               =   0.0000000000000E+00
(PID.TID 0000.0001) %MON exf_swflux_mean              =   0.0000000000000E+00
(PID.TID 0000.0001) %MON exf_swflux_sd                =   0.0000000000000E+00
(PID.TID 0000.0001) %MON exf_swflux_del2              =   0.0000000000000E+00
(PID.TID 0000.0001) %MON exf_swdown_max               =   0.0000000000000E+00
(PID.TID 0000.0001) %MON exf_swdown_min               =   0.0000000000000E+00
(PID.TID 0000.0001) %MON exf_swdown_mean              =   0.0000000000000E+00
(PID.TID 0000.0001) %MON exf_swdown_sd                =   0.0000000000000E+00
(PID.TID 0000.0001) %MON exf_swdown_del2              =   0.0000000000000E+00
(PID.TID 0000.0001) %MON exf_lwdown_max               =   4.1505412793497E+02
(PID.TID 0000.0001) %MON exf_lwdown_min               =   2.2448607473773E+02
(PID.TID 0000.0001) %MON exf_lwdown_mean              =   3.4921813338793E+02
(PID.TID 0000.0001) %MON exf_lwdown_sd                =   3.1302832687846E+01
(PID.TID 0000.0001) %MON exf_lwdown_del2              =   1.3523559000391E-01
(PID.TID 0000.0001) %MON exf_apressure_max            =   1.0279678232205E+05
(PID.TID 0000.0001) %MON exf_apressure_min            =   1.0000622433023E+05
(PID.TID 0000.0001) %MON exf_apressure_mean           =   1.0216451992626E+05
(PID.TID 0000.0001) %MON exf_apressure_sd             =   4.9900957732261E+02
(PID.TID 0000.0001) %MON exf_apressure_del2           =   3.9519408083682E+01
(PID.TID 0000.0001) %MON exf_runoff_max               =   4.4374791284855E-08
(PID.TID 0000.0001) %MON exf_runoff_min               =   0.0000000000000E+00
(PID.TID 0000.0001) %MON exf_runoff_mean              =   1.5884794052194E-09
(PID.TID 0000.0001) %MON exf_runoff_sd                =   5.3901957917178E-09
(PID.TID 0000.0001) %MON exf_runoff_del2              =   2.2191214937507E-12
(PID.TID 0000.0001) // =======================================================
(PID.TID 0000.0001) // End MONITOR EXF statistics
(PID.TID 0000.0001) // =======================================================
 cg2d: Sum(rhs),rhsMax =   5.71072547647460E+02  1.88555426456857E-01
(PID.TID 0000.0001)      cg2d_init_res =   1.41408980037846E+00
(PID.TID 0000.0001)      cg2d_iters(min,last) =      -1     314
(PID.TID 0000.0001)      cg2d_last_res =   6.57633950789127E-12
(PID.TID 0000.0001) // =======================================================
(PID.TID 0000.0001) // Begin MONITOR dynamic field statistics
(PID.TID 0000.0001) // =======================================================
(PID.TID 0000.0001) %MON time_tsnumber                =                     8
(PID.TID 0000.0001) %MON time_secondsf                =   1.9200000000000E+03
(PID.TID 0000.0001) %MON dynstat_eta_max              =   1.3856417124537E+00
(PID.TID 0000.0001) %MON dynstat_eta_min              =  -8.8068866938883E-01
(PID.TID 0000.0001) %MON dynstat_eta_mean             =  -1.9420521860295E-02
(PID.TID 0000.0001) %MON dynstat_eta_sd               =   1.9264045282131E-01
(PID.TID 0000.0001) %MON dynstat_eta_del2             =   2.4093873686561E-06
(PID.TID 0000.0001) %MON dynstat_uvel_max             =   1.2987353344380E+00
(PID.TID 0000.0001) %MON dynstat_uvel_min             =  -7.0420150267948E-01
(PID.TID 0000.0001) %MON dynstat_uvel_mean            =   2.2353850490736E-03
(PID.TID 0000.0001) %MON dynstat_uvel_sd              =   5.2265618861252E-02
(PID.TID 0000.0001) %MON dynstat_uvel_del2            =   4.8769317289889E-07
(PID.TID 0000.0001) %MON dynstat_vvel_max             =   1.8680959337487E+00
(PID.TID 0000.0001) %MON dynstat_vvel_min             =  -9.1534636728912E-01
(PID.TID 0000.0001) %MON dynstat_vvel_mean            =  -7.6419162496278E-03
(PID.TID 0000.0001) %MON dynstat_vvel_sd              =   4.8149258733335E-02
(PID.TID 0000.0001) %MON dynstat_vvel_del2            =   4.5224256113101E-07
(PID.TID 0000.0001) %MON dynstat_wvel_max             =   3.5628096108048E-02
(PID.TID 0000.0001) %MON dynstat_wvel_min             =  -2.8346117895311E-02
(PID.TID 0000.0001) %MON dynstat_wvel_mean            =  -5.1214145757770E-06
(PID.TID 0000.0001) %MON dynstat_wvel_sd              =   5.8985376163922E-04
(PID.TID 0000.0001) %MON dynstat_wvel_del2            =   7.4703714328008E-08
(PID.TID 0000.0001) %MON dynstat_theta_max            =   2.6138853067863E+01
(PID.TID 0000.0001) %MON dynstat_theta_min            =   1.4688646933467E+00
(PID.TID 0000.0001) %MON dynstat_theta_mean           =   5.5098907497807E+00
(PID.TID 0000.0001) %MON dynstat_theta_sd             =   4.7734813990966E+00
(PID.TID 0000.0001) %MON dynstat_theta_del2           =   3.9975366746309E-06
(PID.TID 0000.0001) %MON dynstat_salt_max             =   3.9167319797447E+01
(PID.TID 0000.0001) %MON dynstat_salt_min             =   3.3095131733431E+01
(PID.TID 0000.0001) %MON dynstat_salt_mean            =   3.5173373933531E+01
(PID.TID 0000.0001) %MON dynstat_salt_sd              =   3.7892684256873E-01
(PID.TID 0000.0001) %MON dynstat_salt_del2            =   5.1350729266949E-07
(PID.TID 0000.0001) %MON forcing_qnet_max             =   1.1723894614280E+03
(PID.TID 0000.0001) %MON forcing_qnet_min             =  -2.8720273495976E+02
(PID.TID 0000.0001) %MON forcing_qnet_mean            =   2.4206087672507E+02
(PID.TID 0000.0001) %MON forcing_qnet_sd              =   1.4218702031601E+02
(PID.TID 0000.0001) %MON forcing_qnet_del2            =   1.6785446613351E-03
(PID.TID 0000.0001) %MON forcing_qsw_max              =   0.0000000000000E+00
(PID.TID 0000.0001) %MON forcing_qsw_min              =   0.0000000000000E+00
(PID.TID 0000.0001) %MON forcing_qsw_mean             =   0.0000000000000E+00
(PID.TID 0000.0001) %MON forcing_qsw_sd               =   0.0000000000000E+00
(PID.TID 0000.0001) %MON forcing_qsw_del2             =   0.0000000000000E+00
(PID.TID 0000.0001) %MON forcing_empmr_max            =   2.5694405464675E-04
(PID.TID 0000.0001) %MON forcing_empmr_min            =  -1.6464736783654E-03
(PID.TID 0000.0001) %MON forcing_empmr_mean           =   1.6992074960027E-05
(PID.TID 0000.0001) %MON forcing_empmr_sd             =   1.3056162906287E-04
(PID.TID 0000.0001) %MON forcing_empmr_del2           =   3.3491685138086E-09
(PID.TID 0000.0001) %MON forcing_fu_max               =   8.3293906692713E-01
(PID.TID 0000.0001) %MON forcing_fu_min               =  -4.1073878324858E-01
(PID.TID 0000.0001) %MON forcing_fu_mean              =   6.3167204485574E-02
(PID.TID 0000.0001) %MON forcing_fu_sd                =   1.5494872252387E-01
(PID.TID 0000.0001) %MON forcing_fu_del2              =   3.3738620009606E-07
(PID.TID 0000.0001) %MON forcing_fv_max               =   3.9021186868974E-01
(PID.TID 0000.0001) %MON forcing_fv_min               =  -5.6554338219378E-01
(PID.TID 0000.0001) %MON forcing_fv_mean              =   1.0809888272515E-02
(PID.TID 0000.0001) %MON forcing_fv_sd                =   1.0155273950353E-01
(PID.TID 0000.0001) %MON forcing_fv_del2              =   2.4362781907499E-07
(PID.TID 0000.0001) %MON trAdv_CFL_u_max              =   7.8795263535994E-02
(PID.TID 0000.0001) %MON trAdv_CFL_v_max              =   1.1852872729701E-01
(PID.TID 0000.0001) %MON trAdv_CFL_w_max              =   5.3586850366041E-01
(PID.TID 0000.0001) %MON advcfl_uvel_max              =   7.8795262463125E-02
(PID.TID 0000.0001) %MON advcfl_vvel_max              =   1.1856357933775E-01
(PID.TID 0000.0001) %MON advcfl_wvel_max              =   5.3171448425219E-01
(PID.TID 0000.0001) %MON advcfl_W_hf_max              =   5.3586850366041E-01
(PID.TID 0000.0001) %MON pe_b_mean                    =  -4.3092760059586E-04
(PID.TID 0000.0001) %MON ke_max                       =   1.7464974238607E+00
(PID.TID 0000.0001) %MON ke_mean                      =   2.5378557642721E-03
(PID.TID 0000.0001) %MON ke_vol                       =   4.5818637279721E+16
(PID.TID 0000.0001) %MON vort_r_min                   =  -5.5637567624230E-04
(PID.TID 0000.0001) %MON vort_r_max                   =   5.1741433854071E-04
(PID.TID 0000.0001) %MON vort_a_mean                  =   8.2147612188354E-05
(PID.TID 0000.0001) %MON vort_a_sd                    =   1.0134209229807E-05
(PID.TID 0000.0001) %MON vort_p_mean                  =   8.4848833139061E-05
(PID.TID 0000.0001) %MON vort_p_sd                    =   3.4995653840952E-05
(PID.TID 0000.0001) %MON surfExpan_theta_mean         =  -2.3304621177266E-05
(PID.TID 0000.0001) %MON surfExpan_salt_mean          =  -2.2013894546596E-04
(PID.TID 0000.0001) // =======================================================
(PID.TID 0000.0001) // End MONITOR dynamic field statistics
(PID.TID 0000.0001) // =======================================================
(PID.TID 0000.0001) // =======================================================
(PID.TID 0000.0001) // Begin OBCS MONITOR field statistics
(PID.TID 0000.0001) // =======================================================
(PID.TID 0000.0001) %MON obc_N_vVel_max               =   6.7701229115074E-01
(PID.TID 0000.0001) %MON obc_N_vVel_min               =  -7.0822582863865E-01
(PID.TID 0000.0001) %MON obc_N_vVel_mean              =  -6.6995493466733E-03
(PID.TID 0000.0001) %MON obc_N_vVel_sd                =   6.2835793838347E-02
(PID.TID 0000.0001) %MON obc_N_vVel_Int               =  -9.5904614759462E+07
(PID.TID 0000.0001) %MON obc_S_vVel_max               =   1.5924724615405E+00
(PID.TID 0000.0001) %MON obc_S_vVel_min               =  -2.5557175951023E-01
(PID.TID 0000.0001) %MON obc_S_vVel_mean              =  -5.5456339053997E-03
(PID.TID 0000.0001) %MON obc_S_vVel_sd                =   3.6986773572479E-02
(PID.TID 0000.0001) %MON obc_S_vVel_Int               =  -1.6882517660484E+08
(PID.TID 0000.0001) %MON obc_N_theta_max              =   1.6390156227667E+01
(PID.TID 0000.0001) %MON obc_N_theta_min              =   1.8895911195086E+00
(PID.TID 0000.0001) %MON obc_N_theta_mean             =   5.1589214286885E+00
(PID.TID 0000.0001) %MON obc_N_theta_sd               =   3.4826596030751E+00
(PID.TID 0000.0001) %MON obc_S_theta_max              =   2.5544119318571E+01
(PID.TID 0000.0001) %MON obc_S_theta_min              =   1.4632988111847E+00
(PID.TID 0000.0001) %MON obc_S_theta_mean             =   5.4595513400148E+00
(PID.TID 0000.0001) %MON obc_S_theta_sd               =   5.3559060658268E+00
(PID.TID 0000.0001) %MON obc_N_salt_max               =   3.5910864381053E+01
(PID.TID 0000.0001) %MON obc_N_salt_min               =   3.3295058091112E+01
(PID.TID 0000.0001) %MON obc_N_salt_mean              =   3.5114561948457E+01
(PID.TID 0000.0001) %MON obc_N_salt_sd                =   3.0984837466746E-01
(PID.TID 0000.0001) %MON obc_S_salt_max               =   3.7318291555549E+01
(PID.TID 0000.0001) %MON obc_S_salt_min               =   3.4844694731580E+01
(PID.TID 0000.0001) %MON obc_S_salt_mean              =   3.5168372363502E+01
(PID.TID 0000.0001) %MON obc_S_salt_sd                =   4.5716829920709E-01
(PID.TID 0000.0001) // =======================================================
(PID.TID 0000.0001) // End OBCS MONITOR field statistics
(PID.TID 0000.0001) // =======================================================
(PID.TID 0000.0001)  EXF_INTERP_READ: opening file: era_forcing/ERA5_rain_2008
(PID.TID 0000.0001)  EXF_INTERP_READ: opening file: era_forcing/ERA5_dsw_2008
(PID.TID 0000.0001)  EXF_INTERP_READ: opening file: era_forcing/ERA5_dlw_2008
(PID.TID 0000.0001) // =======================================================
(PID.TID 0000.0001) // Begin MONITOR EXF statistics
(PID.TID 0000.0001) // =======================================================
(PID.TID 0000.0001) %MON exf_tsnumber                 =                     8
(PID.TID 0000.0001) %MON exf_time_sec                 =   1.9200000000000E+03
(PID.TID 0000.0001) %MON exf_ustress_max              =   8.4370941684169E-01
(PID.TID 0000.0001) %MON exf_ustress_min              =  -4.0810189364090E-01
(PID.TID 0000.0001) %MON exf_ustress_mean             =   6.3211148535271E-02
(PID.TID 0000.0001) %MON exf_ustress_sd               =   1.5485984531292E-01
(PID.TID 0000.0001) %MON exf_ustress_del2             =   3.7971911935994E-07
(PID.TID 0000.0001) %MON exf_vstress_max              =   3.9021402862563E-01
(PID.TID 0000.0001) %MON exf_vstress_min              =  -5.6201484863300E-01
(PID.TID 0000.0001) %MON exf_vstress_mean             =   1.0884432566190E-02
(PID.TID 0000.0001) %MON exf_vstress_sd               =   1.0141658111448E-01
(PID.TID 0000.0001) %MON exf_vstress_del2             =   2.6697085216515E-07
(PID.TID 0000.0001) %MON exf_hflux_max                =   1.1599789263284E+03
(PID.TID 0000.0001) %MON exf_hflux_min                =  -2.8594083306115E+02
(PID.TID 0000.0001) %MON exf_hflux_mean               =   2.3954714511079E+02
(PID.TID 0000.0001) %MON exf_hflux_sd                 =   1.4021215091154E+02
(PID.TID 0000.0001) %MON exf_hflux_del2               =   1.0894769994343E-01
(PID.TID 0000.0001) %MON exf_sflux_max                =   2.5585135306127E-07
(PID.TID 0000.0001) %MON exf_sflux_min                =  -1.7183933432855E-06
(PID.TID 0000.0001) %MON exf_sflux_mean               =   1.7319781465414E-08
(PID.TID 0000.0001) %MON exf_sflux_sd                 =   1.3420343585340E-07
(PID.TID 0000.0001) %MON exf_sflux_del2               =   5.4089619667008E-11
(PID.TID 0000.0001) %MON exf_uwind_max                =   1.9623298509068E+01
(PID.TID 0000.0001) %MON exf_uwind_min                =  -1.4901844981671E+01
(PID.TID 0000.0001) %MON exf_uwind_mean               =   2.4778631616608E+00
(PID.TID 0000.0001) %MON exf_uwind_sd                 =   6.6669555639183E+00
(PID.TID 0000.0001) %MON exf_uwind_del2               =   2.8385764436819E-03
(PID.TID 0000.0001) %MON exf_vwind_max                =   1.4390400832062E+01
(PID.TID 0000.0001) %MON exf_vwind_min                =  -1.2765980162659E+01
(PID.TID 0000.0001) %MON exf_vwind_mean               =   8.6360285412510E-01
(PID.TID 0000.0001) %MON exf_vwind_sd                 =   5.1774599907857E+00
(PID.TID 0000.0001) %MON exf_vwind_del2               =   2.0870831740353E-03
(PID.TID 0000.0001) %MON exf_wspeed_max               =   2.0292393309165E+01
(PID.TID 0000.0001) %MON exf_wspeed_min               =   2.8914872822993E-03
(PID.TID 0000.0001) %MON exf_wspeed_mean              =   7.7124583882694E+00
(PID.TID 0000.0001) %MON exf_wspeed_sd                =   4.3194895293577E+00
(PID.TID 0000.0001) %MON exf_wspeed_del2              =   3.5229874117624E-03
(PID.TID 0000.0001) %MON exf_atemp_max                =   2.9816024585792E+02
(PID.TID 0000.0001) %MON exf_atemp_min                =   2.7434694900651E+02
(PID.TID 0000.0001) %MON exf_atemp_mean               =   2.9067717714392E+02
(PID.TID 0000.0001) %MON exf_atemp_sd                 =   3.9439908504319E+00
(PID.TID 0000.0001) %MON exf_atemp_del2               =   6.8398384934223E-03
(PID.TID 0000.0001) %MON exf_aqh_max                  =   1.6766585126340E-02
(PID.TID 0000.0001) %MON exf_aqh_min                  =   2.7217053503686E-03
(PID.TID 0000.0001) %MON exf_aqh_mean                 =   9.4192672790309E-03
(PID.TID 0000.0001) %MON exf_aqh_sd                   =   2.8735677177259E-03
(PID.TID 0000.0001) %MON exf_aqh_del2                 =   3.7493261346545E-06
(PID.TID 0000.0001) %MON exf_lwflux_max               =   1.5286015279061E+02
(PID.TID 0000.0001) %MON exf_lwflux_min               =  -6.8273894060155E+00
(PID.TID 0000.0001) %MON exf_lwflux_mean              =   6.5420303580774E+01
(PID.TID 0000.0001) %MON exf_lwflux_sd                =   2.6803670167181E+01
(PID.TID 0000.0001) %MON exf_lwflux_del2              =   2.7144134777490E-02
(PID.TID 0000.0001) %MON exf_evap_max                 =   2.7966048234026E-07
(PID.TID 0000.0001) %MON exf_evap_min                 =  -9.5489055677037E-08
(PID.TID 0000.0001) %MON exf_evap_mean                =   5.9265704084605E-08
(PID.TID 0000.0001) %MON exf_evap_sd                  =   4.2026480892820E-08
(PID.TID 0000.0001) %MON exf_evap_del2                =   2.8551039755010E-11
(PID.TID 0000.0001) %MON exf_precip_max               =   1.8946560964359E-06
(PID.TID 0000.0001) %MON exf_precip_min               =   0.0000000000000E+00
(PID.TID 0000.0001) %MON exf_precip_mean              =   4.0357443213972E-08
(PID.TID 0000.0001) %MON exf_precip_sd                =   1.3917898192904E-07
(PID.TID 0000.0001) %MON exf_precip_del2              =   5.8637754918718E-11
(PID.TID 0000.0001) %MON exf_swflux_max               =   0.0000000000000E+00
(PID.TID 0000.0001) %MON exf_swflux_min               =   0.0000000000000E+00
(PID.TID 0000.0001) %MON exf_swflux_mean              =   0.0000000000000E+00
(PID.TID 0000.0001) %MON exf_swflux_sd                =   0.0000000000000E+00
(PID.TID 0000.0001) %MON exf_swflux_del2              =   0.0000000000000E+00
(PID.TID 0000.0001) %MON exf_swdown_max               =   0.0000000000000E+00
(PID.TID 0000.0001) %MON exf_swdown_min               =   0.0000000000000E+00
(PID.TID 0000.0001) %MON exf_swdown_mean              =   0.0000000000000E+00
(PID.TID 0000.0001) %MON exf_swdown_sd                =   0.0000000000000E+00
(PID.TID 0000.0001) %MON exf_swdown_del2              =   0.0000000000000E+00
(PID.TID 0000.0001) %MON exf_lwdown_max               =   4.1825042980031E+02
(PID.TID 0000.0001) %MON exf_lwdown_min               =   2.2314382656222E+02
(PID.TID 0000.0001) %MON exf_lwdown_mean              =   3.4962240595456E+02
(PID.TID 0000.0001) %MON exf_lwdown_sd                =   3.1990071459670E+01
(PID.TID 0000.0001) %MON exf_lwdown_del2              =   1.3541860043837E-01
(PID.TID 0000.0001) %MON exf_apressure_max            =   1.0279973710513E+05
(PID.TID 0000.0001) %MON exf_apressure_min            =   1.0000974426508E+05
(PID.TID 0000.0001) %MON exf_apressure_mean           =   1.0216529723281E+05
(PID.TID 0000.0001) %MON exf_apressure_sd             =   4.9888638326062E+02
(PID.TID 0000.0001) %MON exf_apressure_del2           =   3.9519715493445E+01
(PID.TID 0000.0001) %MON exf_runoff_max               =   4.4374791284855E-08
(PID.TID 0000.0001) %MON exf_runoff_min               =   0.0000000000000E+00
(PID.TID 0000.0001) %MON exf_runoff_mean              =   1.5884794052194E-09
(PID.TID 0000.0001) %MON exf_runoff_sd                =   5.3901957917178E-09
(PID.TID 0000.0001) %MON exf_runoff_del2              =   2.2191214937507E-12
(PID.TID 0000.0001) // =======================================================
(PID.TID 0000.0001) // End MONITOR EXF statistics
(PID.TID 0000.0001) // =======================================================
 cg2d: Sum(rhs),rhsMax =   6.09015305510833E+02  1.61998001891873E-01
(PID.TID 0000.0001)      cg2d_init_res =   1.51216564289453E+00
(PID.TID 0000.0001)      cg2d_iters(min,last) =      -1     313
(PID.TID 0000.0001)      cg2d_last_res =   6.84613313853255E-12
(PID.TID 0000.0001) // =======================================================
(PID.TID 0000.0001) // Begin MONITOR dynamic field statistics
(PID.TID 0000.0001) // =======================================================
(PID.TID 0000.0001) %MON time_tsnumber                =                     9
(PID.TID 0000.0001) %MON time_secondsf                =   2.1600000000000E+03
(PID.TID 0000.0001) %MON dynstat_eta_max              =   1.3787663383307E+00
(PID.TID 0000.0001) %MON dynstat_eta_min              =  -9.1718333015784E-01
(PID.TID 0000.0001) %MON dynstat_eta_mean             =  -2.0710845062769E-02
(PID.TID 0000.0001) %MON dynstat_eta_sd               =   2.0179061872152E-01
(PID.TID 0000.0001) %MON dynstat_eta_del2             =   2.4090092827814E-06
(PID.TID 0000.0001) %MON dynstat_uvel_max             =   1.2957571079496E+00
(PID.TID 0000.0001) %MON dynstat_uvel_min             =  -7.0261089339656E-01
(PID.TID 0000.0001) %MON dynstat_uvel_mean            =   1.8745060293009E-03
(PID.TID 0000.0001) %MON dynstat_uvel_sd              =   5.2214911146942E-02
(PID.TID 0000.0001) %MON dynstat_uvel_del2            =   4.9749218347319E-07
(PID.TID 0000.0001) %MON dynstat_vvel_max             =   1.8722868754394E+00
(PID.TID 0000.0001) %MON dynstat_vvel_min             =  -9.1729651319683E-01
(PID.TID 0000.0001) %MON dynstat_vvel_mean            =  -8.3138126254174E-03
(PID.TID 0000.0001) %MON dynstat_vvel_sd              =   4.8212192354455E-02
(PID.TID 0000.0001) %MON dynstat_vvel_del2            =   4.6170006752145E-07
(PID.TID 0000.0001) %MON dynstat_wvel_max             =   3.5175066645073E-02
(PID.TID 0000.0001) %MON dynstat_wvel_min             =  -2.9043827819104E-02
(PID.TID 0000.0001) %MON dynstat_wvel_mean            =  -4.4682349976577E-06
(PID.TID 0000.0001) %MON dynstat_wvel_sd              =   5.9433979482513E-04
(PID.TID 0000.0001) %MON dynstat_wvel_del2            =   7.5261843049779E-08
(PID.TID 0000.0001) %MON dynstat_theta_max            =   2.6140353480302E+01
(PID.TID 0000.0001) %MON dynstat_theta_min            =   1.4688647714072E+00
(PID.TID 0000.0001) %MON dynstat_theta_mean           =   5.5098848097529E+00
(PID.TID 0000.0001) %MON dynstat_theta_sd             =   4.7734585251686E+00
(PID.TID 0000.0001) %MON dynstat_theta_del2           =   3.9999109964406E-06
(PID.TID 0000.0001) %MON dynstat_salt_max             =   3.9163812276856E+01
(PID.TID 0000.0001) %MON dynstat_salt_min             =   3.3096042543689E+01
(PID.TID 0000.0001) %MON dynstat_salt_mean            =   3.5173373338256E+01
(PID.TID 0000.0001) %MON dynstat_salt_sd              =   3.7892640430543E-01
(PID.TID 0000.0001) %MON dynstat_salt_del2            =   5.1720373831537E-07
(PID.TID 0000.0001) %MON forcing_qnet_max             =   1.1776655552193E+03
(PID.TID 0000.0001) %MON forcing_qnet_min             =  -2.9073961124753E+02
(PID.TID 0000.0001) %MON forcing_qnet_mean            =   2.4167927654185E+02
(PID.TID 0000.0001) %MON forcing_qnet_sd              =   1.4196100618216E+02
(PID.TID 0000.0001) %MON forcing_qnet_del2            =   1.6768898623737E-03
(PID.TID 0000.0001) %MON forcing_qsw_max              =   0.0000000000000E+00
(PID.TID 0000.0001) %MON forcing_qsw_min              =   0.0000000000000E+00
(PID.TID 0000.0001) %MON forcing_qsw_mean             =   0.0000000000000E+00
(PID.TID 0000.0001) %MON forcing_qsw_sd               =   0.0000000000000E+00
(PID.TID 0000.0001) %MON forcing_qsw_del2             =   0.0000000000000E+00
(PID.TID 0000.0001) %MON forcing_empmr_max            =   2.5585135306127E-04
(PID.TID 0000.0001) %MON forcing_empmr_min            =  -1.7183933432855E-03
(PID.TID 0000.0001) %MON forcing_empmr_mean           =   1.7319781465414E-05
(PID.TID 0000.0001) %MON forcing_empmr_sd             =   1.3420343585340E-04
(PID.TID 0000.0001) %MON forcing_empmr_del2           =   3.3582580236789E-09
(PID.TID 0000.0001) %MON forcing_fu_max               =   8.4299421363099E-01
(PID.TID 0000.0001) %MON forcing_fu_min               =  -4.0808198639315E-01
(PID.TID 0000.0001) %MON forcing_fu_mean              =   6.3270432814637E-02
(PID.TID 0000.0001) %MON forcing_fu_sd                =   1.5491981745256E-01
(PID.TID 0000.0001) %MON forcing_fu_del2              =   3.3848750816591E-07
(PID.TID 0000.0001) %MON forcing_fv_max               =   3.9013052634852E-01
(PID.TID 0000.0001) %MON forcing_fv_min               =  -5.6582757362927E-01
(PID.TID 0000.0001) %MON forcing_fv_mean              =   1.0866462510175E-02
(PID.TID 0000.0001) %MON forcing_fv_sd                =   1.0154796438707E-01
(PID.TID 0000.0001) %MON forcing_fv_del2              =   2.4668101094908E-07
(PID.TID 0000.0001) %MON trAdv_CFL_u_max              =   7.8614572262874E-02
(PID.TID 0000.0001) %MON trAdv_CFL_v_max              =   1.1879463815084E-01
(PID.TID 0000.0001) %MON trAdv_CFL_w_max              =   5.3088033968674E-01
(PID.TID 0000.0001) %MON advcfl_uvel_max              =   7.8614571192466E-02
(PID.TID 0000.0001) %MON advcfl_vvel_max              =   1.1882956837968E-01
(PID.TID 0000.0001) %MON advcfl_wvel_max              =   5.2676498821630E-01
(PID.TID 0000.0001) %MON advcfl_W_hf_max              =   5.3088033968674E-01
(PID.TID 0000.0001) %MON pe_b_mean                    =  -4.5790036517785E-04
(PID.TID 0000.0001) %MON ke_max                       =   1.7548939993454E+00
(PID.TID 0000.0001) %MON ke_mean                      =   2.5428394984646E-03
(PID.TID 0000.0001) %MON ke_vol                       =   4.5818637279721E+16
(PID.TID 0000.0001) %MON vort_r_min                   =  -5.6025375910619E-04
(PID.TID 0000.0001) %MON vort_r_max                   =   5.2489614078112E-04
(PID.TID 0000.0001) %MON vort_a_mean                  =   8.2147612416050E-05
(PID.TID 0000.0001) %MON vort_a_sd                    =   1.0137393060726E-05
(PID.TID 0000.0001) %MON vort_p_mean                  =   8.4848833374244E-05
(PID.TID 0000.0001) %MON vort_p_sd                    =   3.4999721437879E-05
(PID.TID 0000.0001) %MON surfExpan_theta_mean         =   5.7710785758945E-06
(PID.TID 0000.0001) %MON surfExpan_salt_mean          =  -1.8129415433896E-04
(PID.TID 0000.0001) // =======================================================
(PID.TID 0000.0001) // End MONITOR dynamic field statistics
(PID.TID 0000.0001) // =======================================================
(PID.TID 0000.0001) // =======================================================
(PID.TID 0000.0001) // Begin OBCS MONITOR field statistics
(PID.TID 0000.0001) // =======================================================
(PID.TID 0000.0001) %MON obc_N_vVel_max               =   6.7689276449732E-01
(PID.TID 0000.0001) %MON obc_N_vVel_min               =  -7.0780497718205E-01
(PID.TID 0000.0001) %MON obc_N_vVel_mean              =  -6.7938895718825E-03
(PID.TID 0000.0001) %MON obc_N_vVel_sd                =   6.2838576514145E-02
(PID.TID 0000.0001) %MON obc_N_vVel_Int               =  -9.7255103051561E+07
(PID.TID 0000.0001) %MON obc_S_vVel_max               =   1.5932614383446E+00
(PID.TID 0000.0001) %MON obc_S_vVel_min               =  -2.5545588130493E-01
(PID.TID 0000.0001) %MON obc_S_vVel_mean              =  -5.1905598624442E-03
(PID.TID 0000.0001) %MON obc_S_vVel_sd                =   3.6985079048590E-02
(PID.TID 0000.0001) %MON obc_S_vVel_Int               =  -1.5801569313868E+08
(PID.TID 0000.0001) %MON obc_N_theta_max              =   1.6390068125480E+01
(PID.TID 0000.0001) %MON obc_N_theta_min              =   1.8895911685740E+00
(PID.TID 0000.0001) %MON obc_N_theta_mean             =   5.1589140445385E+00
(PID.TID 0000.0001) %MON obc_N_theta_sd               =   3.4826503119707E+00
(PID.TID 0000.0001) %MON obc_S_theta_max              =   2.5544016569792E+01
(PID.TID 0000.0001) %MON obc_S_theta_min              =   1.4632992074720E+00
(PID.TID 0000.0001) %MON obc_S_theta_mean             =   5.4595505349902E+00
(PID.TID 0000.0001) %MON obc_S_theta_sd               =   5.3559021947514E+00
(PID.TID 0000.0001) %MON obc_N_salt_max               =   3.5910863972689E+01
(PID.TID 0000.0001) %MON obc_N_salt_min               =   3.3295063593745E+01
(PID.TID 0000.0001) %MON obc_N_salt_mean              =   3.5114561652470E+01
(PID.TID 0000.0001) %MON obc_N_salt_sd                =   3.0984825547911E-01
(PID.TID 0000.0001) %MON obc_S_salt_max               =   3.7318284671165E+01
(PID.TID 0000.0001) %MON obc_S_salt_min               =   3.4844694783800E+01
(PID.TID 0000.0001) %MON obc_S_salt_mean              =   3.5168372291585E+01
(PID.TID 0000.0001) %MON obc_S_salt_sd                =   4.5716794816063E-01
(PID.TID 0000.0001) // =======================================================
(PID.TID 0000.0001) // End OBCS MONITOR field statistics
(PID.TID 0000.0001) // =======================================================
(PID.TID 0000.0001) // =======================================================
(PID.TID 0000.0001) // Begin MONITOR EXF statistics
(PID.TID 0000.0001) // =======================================================
(PID.TID 0000.0001) %MON exf_tsnumber                 =                     9
(PID.TID 0000.0001) %MON exf_time_sec                 =   2.1600000000000E+03
(PID.TID 0000.0001) %MON exf_ustress_max              =   8.5440023530530E-01
(PID.TID 0000.0001) %MON exf_ustress_min              =  -4.0556438679068E-01
(PID.TID 0000.0001) %MON exf_ustress_mean             =   6.3339023745738E-02
(PID.TID 0000.0001) %MON exf_ustress_sd               =   1.5490563600434E-01
(PID.TID 0000.0001) %MON exf_ustress_del2             =   3.8401678484688E-07
(PID.TID 0000.0001) %MON exf_vstress_max              =   3.9153792377360E-01
(PID.TID 0000.0001) %MON exf_vstress_min              =  -5.6279102183484E-01
(PID.TID 0000.0001) %MON exf_vstress_mean             =   1.0947410612151E-02
(PID.TID 0000.0001) %MON exf_vstress_sd               =   1.0147934582489E-01
(PID.TID 0000.0001) %MON exf_vstress_del2             =   2.7324252289004E-07
(PID.TID 0000.0001) %MON exf_hflux_max                =   1.1663583860214E+03
(PID.TID 0000.0001) %MON exf_hflux_min                =  -2.8839493419818E+02
(PID.TID 0000.0001) %MON exf_hflux_mean               =   2.3953635463131E+02
(PID.TID 0000.0001) %MON exf_hflux_sd                 =   1.4030002227295E+02
(PID.TID 0000.0001) %MON exf_hflux_del2               =   1.0897838403885E-01
(PID.TID 0000.0001) %MON exf_sflux_max                =   2.5651201568937E-07
(PID.TID 0000.0001) %MON exf_sflux_min                =  -1.7372090856285E-06
(PID.TID 0000.0001) %MON exf_sflux_mean               =   1.7071812024237E-08
(PID.TID 0000.0001) %MON exf_sflux_sd                 =   1.3329029042493E-07
(PID.TID 0000.0001) %MON exf_sflux_del2               =   5.3575019161765E-11
(PID.TID 0000.0001) %MON exf_uwind_max                =   1.9727590643234E+01
(PID.TID 0000.0001) %MON exf_uwind_min                =  -1.4873131051579E+01
(PID.TID 0000.0001) %MON exf_uwind_mean               =   2.4798642059460E+00
(PID.TID 0000.0001) %MON exf_uwind_sd                 =   6.6665768260479E+00
(PID.TID 0000.0001) %MON exf_uwind_del2               =   2.8387030728738E-03
(PID.TID 0000.0001) %MON exf_vwind_max                =   1.4419257084253E+01
(PID.TID 0000.0001) %MON exf_vwind_min                =  -1.2771986260466E+01
(PID.TID 0000.0001) %MON exf_vwind_mean               =   8.6581859224615E-01
(PID.TID 0000.0001) %MON exf_vwind_sd                 =   5.1764919592835E+00
(PID.TID 0000.0001) %MON exf_vwind_del2               =   2.0871652268552E-03
(PID.TID 0000.0001) %MON exf_wspeed_max               =   2.0275399759289E+01
(PID.TID 0000.0001) %MON exf_wspeed_min               =   1.2416745432915E-02
(PID.TID 0000.0001) %MON exf_wspeed_mean              =   7.7113569885854E+00
(PID.TID 0000.0001) %MON exf_wspeed_sd                =   4.3213027308131E+00
(PID.TID 0000.0001) %MON exf_wspeed_del2              =   3.5231351861332E-03
(PID.TID 0000.0001) %MON exf_atemp_max                =   2.9815804856951E+02
(PID.TID 0000.0001) %MON exf_atemp_min                =   2.7432134779787E+02
(PID.TID 0000.0001) %MON exf_atemp_mean               =   2.9067405593773E+02
(PID.TID 0000.0001) %MON exf_atemp_sd                 =   3.9444520568666E+00
(PID.TID 0000.0001) %MON exf_atemp_del2               =   6.8386549877382E-03
(PID.TID 0000.0001) %MON exf_aqh_max                  =   1.6759598825467E-02
(PID.TID 0000.0001) %MON exf_aqh_min                  =   2.7194106526046E-03
(PID.TID 0000.0001) %MON exf_aqh_mean                 =   9.4180791262168E-03
(PID.TID 0000.0001) %MON exf_aqh_sd                   =   2.8742704570836E-03
(PID.TID 0000.0001) %MON exf_aqh_del2                 =   3.7488797611757E-06
(PID.TID 0000.0001) %MON exf_lwflux_max               =   1.5313199406935E+02
(PID.TID 0000.0001) %MON exf_lwflux_min               =  -4.6269337867002E+00
(PID.TID 0000.0001) %MON exf_lwflux_mean              =   6.5401803930088E+01
(PID.TID 0000.0001) %MON exf_lwflux_sd                =   2.6703338786938E+01
(PID.TID 0000.0001) %MON exf_lwflux_del2              =   2.7119686147086E-02
(PID.TID 0000.0001) %MON exf_evap_max                 =   2.8137455542453E-07
(PID.TID 0000.0001) %MON exf_evap_min                 =  -9.6300286323096E-08
(PID.TID 0000.0001) %MON exf_evap_mean                =   5.9260869915657E-08
(PID.TID 0000.0001) %MON exf_evap_sd                  =   4.2028769579775E-08
(PID.TID 0000.0001) %MON exf_evap_del2                =   2.8555183896513E-11
(PID.TID 0000.0001) %MON exf_precip_max               =   1.9141066233964E-06
(PID.TID 0000.0001) %MON exf_precip_min               =   0.0000000000000E+00
(PID.TID 0000.0001) %MON exf_precip_mean              =   4.0600578486200E-08
(PID.TID 0000.0001) %MON exf_precip_sd                =   1.3843006107081E-07
(PID.TID 0000.0001) %MON exf_precip_del2              =   5.8245473505235E-11
(PID.TID 0000.0001) %MON exf_swflux_max               =   0.0000000000000E+00
(PID.TID 0000.0001) %MON exf_swflux_min               =   0.0000000000000E+00
(PID.TID 0000.0001) %MON exf_swflux_mean              =   0.0000000000000E+00
(PID.TID 0000.0001) %MON exf_swflux_sd                =   0.0000000000000E+00
(PID.TID 0000.0001) %MON exf_swflux_del2              =   0.0000000000000E+00
(PID.TID 0000.0001) %MON exf_swdown_max               =   0.0000000000000E+00
(PID.TID 0000.0001) %MON exf_swdown_min               =   0.0000000000000E+00
(PID.TID 0000.0001) %MON exf_swdown_mean              =   0.0000000000000E+00
(PID.TID 0000.0001) %MON exf_swdown_sd                =   0.0000000000000E+00
(PID.TID 0000.0001) %MON exf_swdown_del2              =   0.0000000000000E+00
(PID.TID 0000.0001) %MON exf_lwdown_max               =   4.1828155240958E+02
(PID.TID 0000.0001) %MON exf_lwdown_min               =   2.2358340796167E+02
(PID.TID 0000.0001) %MON exf_lwdown_mean              =   3.4963689710756E+02
(PID.TID 0000.0001) %MON exf_lwdown_sd                =   3.1864235004662E+01
(PID.TID 0000.0001) %MON exf_lwdown_del2              =   1.3542076220153E-01
(PID.TID 0000.0001) %MON exf_apressure_max            =   1.0280269188821E+05
(PID.TID 0000.0001) %MON exf_apressure_min            =   1.0001241170265E+05
(PID.TID 0000.0001) %MON exf_apressure_mean           =   1.0216607453936E+05
(PID.TID 0000.0001) %MON exf_apressure_sd             =   4.9880298184990E+02
(PID.TID 0000.0001) %MON exf_apressure_del2           =   3.9520022984619E+01
(PID.TID 0000.0001) %MON exf_runoff_max               =   4.4374791284855E-08
(PID.TID 0000.0001) %MON exf_runoff_min               =   0.0000000000000E+00
(PID.TID 0000.0001) %MON exf_runoff_mean              =   1.5884794052194E-09
(PID.TID 0000.0001) %MON exf_runoff_sd                =   5.3901957917178E-09
(PID.TID 0000.0001) %MON exf_runoff_del2              =   2.2191214937507E-12
(PID.TID 0000.0001) // =======================================================
(PID.TID 0000.0001) // End MONITOR EXF statistics
(PID.TID 0000.0001) // =======================================================
 cg2d: Sum(rhs),rhsMax =   6.39316418381356E+02  1.42960506175387E-01
(PID.TID 0000.0001)      cg2d_init_res =   1.57953353107955E+00
(PID.TID 0000.0001)      cg2d_iters(min,last) =      -1     312
(PID.TID 0000.0001)      cg2d_last_res =   6.99155769519404E-12
(PID.TID 0000.0001) // =======================================================
(PID.TID 0000.0001) // Begin MONITOR dynamic field statistics
(PID.TID 0000.0001) // =======================================================
(PID.TID 0000.0001) %MON time_tsnumber                =                    10
(PID.TID 0000.0001) %MON time_secondsf                =   2.4000000000000E+03
(PID.TID 0000.0001) %MON dynstat_eta_max              =   1.3609192509286E+00
(PID.TID 0000.0001) %MON dynstat_eta_min              =  -9.3966126537363E-01
(PID.TID 0000.0001) %MON dynstat_eta_mean             =  -2.1741298071441E-02
(PID.TID 0000.0001) %MON dynstat_eta_sd               =   2.0928807763478E-01
(PID.TID 0000.0001) %MON dynstat_eta_del2             =   2.3615720360016E-06
(PID.TID 0000.0001) %MON dynstat_uvel_max             =   1.3113465924863E+00
(PID.TID 0000.0001) %MON dynstat_uvel_min             =  -7.0095195540315E-01
(PID.TID 0000.0001) %MON dynstat_uvel_mean            =   1.4959752374067E-03
(PID.TID 0000.0001) %MON dynstat_uvel_sd              =   5.2169258990543E-02
(PID.TID 0000.0001) %MON dynstat_uvel_del2            =   5.0665973601628E-07
(PID.TID 0000.0001) %MON dynstat_vvel_max             =   1.8745900359457E+00
(PID.TID 0000.0001) %MON dynstat_vvel_min             =  -9.1848418302561E-01
(PID.TID 0000.0001) %MON dynstat_vvel_mean            =  -8.9279822290396E-03
(PID.TID 0000.0001) %MON dynstat_vvel_sd              =   4.8274334690858E-02
(PID.TID 0000.0001) %MON dynstat_vvel_del2            =   4.7035055138003E-07
(PID.TID 0000.0001) %MON dynstat_wvel_max             =   3.4677310881178E-02
(PID.TID 0000.0001) %MON dynstat_wvel_min             =  -3.0269358286049E-02
(PID.TID 0000.0001) %MON dynstat_wvel_mean            =  -3.8094294975193E-06
(PID.TID 0000.0001) %MON dynstat_wvel_sd              =   5.9883564773681E-04
(PID.TID 0000.0001) %MON dynstat_wvel_del2            =   7.5106882514599E-08
(PID.TID 0000.0001) %MON dynstat_theta_max            =   2.6142193719262E+01
(PID.TID 0000.0001) %MON dynstat_theta_min            =   1.4688648371956E+00
(PID.TID 0000.0001) %MON dynstat_theta_mean           =   5.5098775439156E+00
(PID.TID 0000.0001) %MON dynstat_theta_sd             =   4.7734327182678E+00
(PID.TID 0000.0001) %MON dynstat_theta_del2           =   4.0025582062950E-06
(PID.TID 0000.0001) %MON dynstat_salt_max             =   3.9160113554051E+01
(PID.TID 0000.0001) %MON dynstat_salt_min             =   3.3096998400040E+01
(PID.TID 0000.0001) %MON dynstat_salt_mean            =   3.5173372694060E+01
(PID.TID 0000.0001) %MON dynstat_salt_sd              =   3.7892573722775E-01
(PID.TID 0000.0001) %MON dynstat_salt_del2            =   5.2068672445162E-07
(PID.TID 0000.0001) %MON forcing_qnet_max             =   1.1842531246173E+03
(PID.TID 0000.0001) %MON forcing_qnet_min             =  -2.9320136874420E+02
(PID.TID 0000.0001) %MON forcing_qnet_mean            =   2.4165149551945E+02
(PID.TID 0000.0001) %MON forcing_qnet_sd              =   1.4202674674441E+02
(PID.TID 0000.0001) %MON forcing_qnet_del2            =   1.6703413088123E-03
(PID.TID 0000.0001) %MON forcing_qsw_max              =   0.0000000000000E+00
(PID.TID 0000.0001) %MON forcing_qsw_min              =   0.0000000000000E+00
(PID.TID 0000.0001) %MON forcing_qsw_mean             =   0.0000000000000E+00
(PID.TID 0000.0001) %MON forcing_qsw_sd               =   0.0000000000000E+00
(PID.TID 0000.0001) %MON forcing_qsw_del2             =   0.0000000000000E+00
(PID.TID 0000.0001) %MON forcing_empmr_max            =   2.5651201568937E-04
(PID.TID 0000.0001) %MON forcing_empmr_min            =  -1.7372090856285E-03
(PID.TID 0000.0001) %MON forcing_empmr_mean           =   1.7071812024237E-05
(PID.TID 0000.0001) %MON forcing_empmr_sd             =   1.3329029042493E-04
(PID.TID 0000.0001) %MON forcing_empmr_del2           =   3.1669629152760E-09
(PID.TID 0000.0001) %MON forcing_fu_max               =   8.5406139500705E-01
(PID.TID 0000.0001) %MON forcing_fu_min               =  -4.0547487427978E-01
(PID.TID 0000.0001) %MON forcing_fu_mean              =   6.3398802073576E-02
(PID.TID 0000.0001) %MON forcing_fu_sd                =   1.5496577087505E-01
(PID.TID 0000.0001) %MON forcing_fu_del2              =   3.4357815652449E-07
(PID.TID 0000.0001) %MON forcing_fv_max               =   3.9137393949259E-01
(PID.TID 0000.0001) %MON forcing_fv_min               =  -5.6679751741005E-01
(PID.TID 0000.0001) %MON forcing_fv_mean              =   1.0929733021206E-02
(PID.TID 0000.0001) %MON forcing_fv_sd                =   1.0161095583142E-01
(PID.TID 0000.0001) %MON forcing_fv_del2              =   2.5287956078158E-07
(PID.TID 0000.0001) %MON trAdv_CFL_u_max              =   7.8334636164362E-02
(PID.TID 0000.0001) %MON trAdv_CFL_v_max              =   1.1894077126886E-01
(PID.TID 0000.0001) %MON trAdv_CFL_w_max              =   5.1098996936403E-01
(PID.TID 0000.0001) %MON advcfl_uvel_max              =   7.8334635097765E-02
(PID.TID 0000.0001) %MON advcfl_vvel_max              =   1.1897574446651E-01
(PID.TID 0000.0001) %MON advcfl_wvel_max              =   5.0702880681082E-01
(PID.TID 0000.0001) %MON advcfl_W_hf_max              =   5.1098996936403E-01
(PID.TID 0000.0001) %MON pe_b_mean                    =  -4.7908552760542E-04
(PID.TID 0000.0001) %MON ke_max                       =   1.7598224915234E+00
(PID.TID 0000.0001) %MON ke_mean                      =   2.5480911096691E-03
(PID.TID 0000.0001) %MON ke_vol                       =   4.5818637279721E+16
(PID.TID 0000.0001) %MON vort_r_min                   =  -5.6376825870934E-04
(PID.TID 0000.0001) %MON vort_r_max                   =   5.3346540767014E-04
(PID.TID 0000.0001) %MON vort_a_mean                  =   8.2147612658191E-05
(PID.TID 0000.0001) %MON vort_a_sd                    =   1.0140654470847E-05
(PID.TID 0000.0001) %MON vort_p_mean                  =   8.4848833624347E-05
(PID.TID 0000.0001) %MON vort_p_sd                    =   3.5004299804826E-05
(PID.TID 0000.0001) %MON surfExpan_theta_mean         =   3.4219443191838E-05
(PID.TID 0000.0001) %MON surfExpan_salt_mean          =  -1.4234364502288E-04
(PID.TID 0000.0001) // =======================================================
(PID.TID 0000.0001) // End MONITOR dynamic field statistics
(PID.TID 0000.0001) // =======================================================
(PID.TID 0000.0001) // =======================================================
(PID.TID 0000.0001) // Begin OBCS MONITOR field statistics
(PID.TID 0000.0001) // =======================================================
(PID.TID 0000.0001) %MON obc_N_vVel_max               =   6.7677851863137E-01
(PID.TID 0000.0001) %MON obc_N_vVel_min               =  -7.0671199275830E-01
(PID.TID 0000.0001) %MON obc_N_vVel_mean              =  -6.8796454631123E-03
(PID.TID 0000.0001) %MON obc_N_vVel_sd                =   6.2838773487403E-02
(PID.TID 0000.0001) %MON obc_N_vVel_Int               =  -9.8482705877687E+07
(PID.TID 0000.0001) %MON obc_S_vVel_max               =   1.5940233304140E+00
(PID.TID 0000.0001) %MON obc_S_vVel_min               =  -2.5534248225470E-01
(PID.TID 0000.0001) %MON obc_S_vVel_mean              =  -4.8289143623764E-03
(PID.TID 0000.0001) %MON obc_S_vVel_sd                =   3.6982507657543E-02
(PID.TID 0000.0001) %MON obc_S_vVel_Int               =  -1.4700615546296E+08
(PID.TID 0000.0001) %MON obc_N_theta_max              =   1.6389980023293E+01
(PID.TID 0000.0001) %MON obc_N_theta_min              =   1.8895912176394E+00
(PID.TID 0000.0001) %MON obc_N_theta_mean             =   5.1589066603884E+00
(PID.TID 0000.0001) %MON obc_N_theta_sd               =   3.4826410211044E+00
(PID.TID 0000.0001) %MON obc_S_theta_max              =   2.5543913821012E+01
(PID.TID 0000.0001) %MON obc_S_theta_min              =   1.4632996037592E+00
(PID.TID 0000.0001) %MON obc_S_theta_mean             =   5.4595497299657E+00
(PID.TID 0000.0001) %MON obc_S_theta_sd               =   5.3558983237118E+00
(PID.TID 0000.0001) %MON obc_N_salt_max               =   3.5910863564326E+01
(PID.TID 0000.0001) %MON obc_N_salt_min               =   3.3295069096378E+01
(PID.TID 0000.0001) %MON obc_N_salt_mean              =   3.5114561356483E+01
(PID.TID 0000.0001) %MON obc_N_salt_sd                =   3.0984813632874E-01
(PID.TID 0000.0001) %MON obc_S_salt_max               =   3.7318277786781E+01
(PID.TID 0000.0001) %MON obc_S_salt_min               =   3.4844694836021E+01
(PID.TID 0000.0001) %MON obc_S_salt_mean              =   3.5168372219668E+01
(PID.TID 0000.0001) %MON obc_S_salt_sd                =   4.5716759712294E-01
(PID.TID 0000.0001) // =======================================================
(PID.TID 0000.0001) // End OBCS MONITOR field statistics
(PID.TID 0000.0001) // =======================================================
(PID.TID 0000.0001) // =======================================================
(PID.TID 0000.0001) // Begin MONITOR EXF statistics
(PID.TID 0000.0001) // =======================================================
(PID.TID 0000.0001) %MON exf_tsnumber                 =                    10
(PID.TID 0000.0001) %MON exf_time_sec                 =   2.4000000000000E+03
(PID.TID 0000.0001) %MON exf_ustress_max              =   8.6566537520919E-01
(PID.TID 0000.0001) %MON exf_ustress_min              =  -4.0306960704321E-01
(PID.TID 0000.0001) %MON exf_ustress_mean             =   6.3491883147580E-02
(PID.TID 0000.0001) %MON exf_ustress_sd               =   1.5502522148915E-01
(PID.TID 0000.0001) %MON exf_ustress_del2             =   3.9125992936453E-07
(PID.TID 0000.0001) %MON exf_vstress_max              =   3.9363220234273E-01
(PID.TID 0000.0001) %MON exf_vstress_min              =  -5.6382474478444E-01
(PID.TID 0000.0001) %MON exf_vstress_mean             =   1.1015475359765E-02
(PID.TID 0000.0001) %MON exf_vstress_sd               =   1.0160757730601E-01
(PID.TID 0000.0001) %MON exf_vstress_del2             =   2.8259117780099E-07
(PID.TID 0000.0001) %MON exf_hflux_max                =   1.1729625790377E+03
(PID.TID 0000.0001) %MON exf_hflux_min                =  -2.9099164200130E+02
(PID.TID 0000.0001) %MON exf_hflux_mean               =   2.3954912622524E+02
(PID.TID 0000.0001) %MON exf_hflux_sd                 =   1.4042725855032E+02
(PID.TID 0000.0001) %MON exf_hflux_del2               =   1.0902645887942E-01
(PID.TID 0000.0001) %MON exf_sflux_max                =   2.5720870146725E-07
(PID.TID 0000.0001) %MON exf_sflux_min                =  -1.7560214270937E-06
(PID.TID 0000.0001) %MON exf_sflux_mean               =   1.6831481221786E-08
(PID.TID 0000.0001) %MON exf_sflux_sd                 =   1.3267955606153E-07
(PID.TID 0000.0001) %MON exf_sflux_del2               =   5.3188085964521E-11
(PID.TID 0000.0001) %MON exf_uwind_max                =   1.9833199648610E+01
(PID.TID 0000.0001) %MON exf_uwind_min                =  -1.4845685231219E+01
(PID.TID 0000.0001) %MON exf_uwind_mean               =   2.4819127042548E+00
(PID.TID 0000.0001) %MON exf_uwind_sd                 =   6.6669472668198E+00
(PID.TID 0000.0001) %MON exf_uwind_del2               =   2.8391160371391E-03
(PID.TID 0000.0001) %MON exf_vwind_max                =   1.4463385107692E+01
(PID.TID 0000.0001) %MON exf_vwind_min                =  -1.2781515068756E+01
(PID.TID 0000.0001) %MON exf_vwind_mean               =   8.6798352730474E-01
(PID.TID 0000.0001) %MON exf_vwind_sd                 =   5.1770434215349E+00
(PID.TID 0000.0001) %MON exf_vwind_del2               =   2.0878509288915E-03
(PID.TID 0000.0001) %MON exf_wspeed_max               =   2.0260718838826E+01
(PID.TID 0000.0001) %MON exf_wspeed_min               =   1.0429117785568E-02
(PID.TID 0000.0001) %MON exf_wspeed_mean              =   7.7114043682658E+00
(PID.TID 0000.0001) %MON exf_wspeed_sd                =   4.3240598043180E+00
(PID.TID 0000.0001) %MON exf_wspeed_del2              =   3.5238677625110E-03
(PID.TID 0000.0001) %MON exf_atemp_max                =   2.9815585128109E+02
(PID.TID 0000.0001) %MON exf_atemp_min                =   2.7429574658923E+02
(PID.TID 0000.0001) %MON exf_atemp_mean               =   2.9067093473153E+02
(PID.TID 0000.0001) %MON exf_atemp_sd                 =   3.9450556500922E+00
(PID.TID 0000.0001) %MON exf_atemp_del2               =   6.8374852327902E-03
(PID.TID 0000.0001) %MON exf_aqh_max                  =   1.6752612524593E-02
(PID.TID 0000.0001) %MON exf_aqh_min                  =   2.7171159548406E-03
(PID.TID 0000.0001) %MON exf_aqh_mean                 =   9.4168909734027E-03
(PID.TID 0000.0001) %MON exf_aqh_sd                   =   2.8751456814907E-03
(PID.TID 0000.0001) %MON exf_aqh_del2                 =   3.7484551964519E-06
(PID.TID 0000.0001) %MON exf_lwflux_max               =   1.5340377146741E+02
(PID.TID 0000.0001) %MON exf_lwflux_min               =  -3.1012593152317E+00
(PID.TID 0000.0001) %MON exf_lwflux_mean              =   6.5383547233236E+01
(PID.TID 0000.0001) %MON exf_lwflux_sd                =   2.6621859561342E+01
(PID.TID 0000.0001) %MON exf_lwflux_del2              =   2.7098368719246E-02
(PID.TID 0000.0001) %MON exf_evap_max                 =   2.8321251682082E-07
(PID.TID 0000.0001) %MON exf_evap_min                 =  -9.7140763128575E-08
(PID.TID 0000.0001) %MON exf_evap_mean                =   5.9263674385433E-08
(PID.TID 0000.0001) %MON exf_evap_sd                  =   4.2042726408327E-08
(PID.TID 0000.0001) %MON exf_evap_del2                =   2.8564614144513E-11
(PID.TID 0000.0001) %MON exf_precip_max               =   1.9335571503569E-06
(PID.TID 0000.0001) %MON exf_precip_min               =   0.0000000000000E+00
(PID.TID 0000.0001) %MON exf_precip_mean              =   4.0843713758428E-08
(PID.TID 0000.0001) %MON exf_precip_sd                =   1.3798293944741E-07
(PID.TID 0000.0001) %MON exf_precip_del2              =   5.7975422738598E-11
(PID.TID 0000.0001) %MON exf_swflux_max               =   0.0000000000000E+00
(PID.TID 0000.0001) %MON exf_swflux_min               =   0.0000000000000E+00
(PID.TID 0000.0001) %MON exf_swflux_mean              =   0.0000000000000E+00
(PID.TID 0000.0001) %MON exf_swflux_sd                =   0.0000000000000E+00
(PID.TID 0000.0001) %MON exf_swflux_del2              =   0.0000000000000E+00
(PID.TID 0000.0001) %MON exf_swdown_max               =   0.0000000000000E+00
(PID.TID 0000.0001) %MON exf_swdown_min               =   0.0000000000000E+00
(PID.TID 0000.0001) %MON exf_swdown_mean              =   0.0000000000000E+00
(PID.TID 0000.0001) %MON exf_swdown_sd                =   0.0000000000000E+00
(PID.TID 0000.0001) %MON exf_swdown_del2              =   0.0000000000000E+00
(PID.TID 0000.0001) %MON exf_lwdown_max               =   4.1831267501885E+02
(PID.TID 0000.0001) %MON exf_lwdown_min               =   2.2402298936111E+02
(PID.TID 0000.0001) %MON exf_lwdown_mean              =   3.4965138826056E+02
(PID.TID 0000.0001) %MON exf_lwdown_sd                =   3.1755013557864E+01
(PID.TID 0000.0001) %MON exf_lwdown_del2              =   1.3542357561132E-01
(PID.TID 0000.0001) %MON exf_apressure_max            =   1.0280576881181E+05
(PID.TID 0000.0001) %MON exf_apressure_min            =   1.0001483343524E+05
(PID.TID 0000.0001) %MON exf_apressure_mean           =   1.0216685184592E+05
(PID.TID 0000.0001) %MON exf_apressure_sd             =   4.9875939305256E+02
(PID.TID 0000.0001) %MON exf_apressure_del2           =   3.9520330557201E+01
(PID.TID 0000.0001) %MON exf_runoff_max               =   4.4374791284855E-08
(PID.TID 0000.0001) %MON exf_runoff_min               =   0.0000000000000E+00
(PID.TID 0000.0001) %MON exf_runoff_mean              =   1.5884794052194E-09
(PID.TID 0000.0001) %MON exf_runoff_sd                =   5.3901957917178E-09
(PID.TID 0000.0001) %MON exf_runoff_del2              =   2.2191214937507E-12
(PID.TID 0000.0001) // =======================================================
(PID.TID 0000.0001) // End MONITOR EXF statistics
(PID.TID 0000.0001) // =======================================================
 cg2d: Sum(rhs),rhsMax =   6.61936246572269E+02  1.15022037561001E-01
(PID.TID 0000.0001)      cg2d_init_res =   1.55910027442608E+00
(PID.TID 0000.0001)      cg2d_iters(min,last) =      -1     310
(PID.TID 0000.0001)      cg2d_last_res =   6.56948953789313E-12
(PID.TID 0000.0001) // =======================================================
(PID.TID 0000.0001) // Begin MONITOR dynamic field statistics
(PID.TID 0000.0001) // =======================================================
(PID.TID 0000.0001) %MON time_tsnumber                =                    11
(PID.TID 0000.0001) %MON time_secondsf                =   2.6400000000000E+03
(PID.TID 0000.0001) %MON dynstat_eta_max              =   1.3322448465300E+00
(PID.TID 0000.0001) %MON dynstat_eta_min              =  -9.5875652659736E-01
(PID.TID 0000.0001) %MON dynstat_eta_mean             =  -2.2510532855476E-02
(PID.TID 0000.0001) %MON dynstat_eta_sd               =   2.1546233891899E-01
(PID.TID 0000.0001) %MON dynstat_eta_del2             =   2.3079878287202E-06
(PID.TID 0000.0001) %MON dynstat_uvel_max             =   1.2870037816467E+00
(PID.TID 0000.0001) %MON dynstat_uvel_min             =  -7.0063696051769E-01
(PID.TID 0000.0001) %MON dynstat_uvel_mean            =   1.1043407371129E-03
(PID.TID 0000.0001) %MON dynstat_uvel_sd              =   5.2131639914451E-02
(PID.TID 0000.0001) %MON dynstat_uvel_del2            =   5.1491419686044E-07
(PID.TID 0000.0001) %MON dynstat_vvel_max             =   1.8753823440062E+00
(PID.TID 0000.0001) %MON dynstat_vvel_min             =  -9.1888482403899E-01
(PID.TID 0000.0001) %MON dynstat_vvel_mean            =  -9.4806994212917E-03
(PID.TID 0000.0001) %MON dynstat_vvel_sd              =   4.8333182253919E-02
(PID.TID 0000.0001) %MON dynstat_vvel_del2            =   4.7808134778682E-07
(PID.TID 0000.0001) %MON dynstat_wvel_max             =   3.4446976761941E-02
(PID.TID 0000.0001) %MON dynstat_wvel_min             =  -3.1243343861335E-02
(PID.TID 0000.0001) %MON dynstat_wvel_mean            =  -3.1457316448723E-06
(PID.TID 0000.0001) %MON dynstat_wvel_sd              =   6.0280515050990E-04
(PID.TID 0000.0001) %MON dynstat_wvel_del2            =   7.3926866325360E-08
(PID.TID 0000.0001) %MON dynstat_theta_max            =   2.6144031825395E+01
(PID.TID 0000.0001) %MON dynstat_theta_min            =   1.4688648915581E+00
(PID.TID 0000.0001) %MON dynstat_theta_mean           =   5.5098689484681E+00
(PID.TID 0000.0001) %MON dynstat_theta_sd             =   4.7734040308882E+00
(PID.TID 0000.0001) %MON dynstat_theta_del2           =   4.0052219233645E-06
(PID.TID 0000.0001) %MON dynstat_salt_max             =   3.9156237705049E+01
(PID.TID 0000.0001) %MON dynstat_salt_min             =   3.3097995129331E+01
(PID.TID 0000.0001) %MON dynstat_salt_mean            =   3.5173372000136E+01
(PID.TID 0000.0001) %MON dynstat_salt_sd              =   3.7892486158021E-01
(PID.TID 0000.0001) %MON dynstat_salt_del2            =   5.2387244743261E-07
(PID.TID 0000.0001) %MON forcing_qnet_max             =   1.1909863377793E+03
(PID.TID 0000.0001) %MON forcing_qnet_min             =  -2.9583386953569E+02
(PID.TID 0000.0001) %MON forcing_qnet_mean            =   2.4164806180632E+02
(PID.TID 0000.0001) %MON forcing_qnet_sd              =   1.4213182446595E+02
(PID.TID 0000.0001) %MON forcing_qnet_del2            =   1.6746489057912E-03
(PID.TID 0000.0001) %MON forcing_qsw_max              =   0.0000000000000E+00
(PID.TID 0000.0001) %MON forcing_qsw_min              =   0.0000000000000E+00
(PID.TID 0000.0001) %MON forcing_qsw_mean             =   0.0000000000000E+00
(PID.TID 0000.0001) %MON forcing_qsw_sd               =   0.0000000000000E+00
(PID.TID 0000.0001) %MON forcing_qsw_del2             =   0.0000000000000E+00
(PID.TID 0000.0001) %MON forcing_empmr_max            =   2.5720870146725E-04
(PID.TID 0000.0001) %MON forcing_empmr_min            =  -1.7560214270937E-03
(PID.TID 0000.0001) %MON forcing_empmr_mean           =   1.6831481221786E-05
(PID.TID 0000.0001) %MON forcing_empmr_sd             =   1.3267955606153E-04
(PID.TID 0000.0001) %MON forcing_empmr_del2           =   2.9976095748108E-09
(PID.TID 0000.0001) %MON forcing_fu_max               =   8.6556273093754E-01
(PID.TID 0000.0001) %MON forcing_fu_min               =  -4.0299481676039E-01
(PID.TID 0000.0001) %MON forcing_fu_mean              =   6.3552171592549E-02
(PID.TID 0000.0001) %MON forcing_fu_sd                =   1.5508550552843E-01
(PID.TID 0000.0001) %MON forcing_fu_del2              =   3.5164386846963E-07
(PID.TID 0000.0001) %MON forcing_fv_max               =   3.9350156473879E-01
(PID.TID 0000.0001) %MON forcing_fv_min               =  -5.6800874800014E-01
(PID.TID 0000.0001) %MON forcing_fv_mean              =   1.0998109483417E-02
(PID.TID 0000.0001) %MON forcing_fv_sd                =   1.0173937228987E-01
(PID.TID 0000.0001) %MON forcing_fv_del2              =   2.6199012128912E-07
(PID.TID 0000.0001) %MON trAdv_CFL_u_max              =   7.7978251755230E-02
(PID.TID 0000.0001) %MON trAdv_CFL_v_max              =   1.1899104238414E-01
(PID.TID 0000.0001) %MON trAdv_CFL_w_max              =   5.1062107295477E-01
(PID.TID 0000.0001) %MON advcfl_uvel_max              =   7.7978250693485E-02
(PID.TID 0000.0001) %MON advcfl_vvel_max              =   1.1902603036344E-01
(PID.TID 0000.0001) %MON advcfl_wvel_max              =   5.0211072173886E-01
(PID.TID 0000.0001) %MON advcfl_W_hf_max              =   5.1062107295477E-01
(PID.TID 0000.0001) %MON pe_b_mean                    =  -4.9436750996191E-04
(PID.TID 0000.0001) %MON ke_max                       =   1.7614365357126E+00
(PID.TID 0000.0001) %MON ke_mean                      =   2.5535274009032E-03
(PID.TID 0000.0001) %MON ke_vol                       =   4.5818637279721E+16
(PID.TID 0000.0001) %MON vort_r_min                   =  -5.6613299560412E-04
(PID.TID 0000.0001) %MON vort_r_max                   =   5.4073528850375E-04
(PID.TID 0000.0001) %MON vort_a_mean                  =   8.2147612914539E-05
(PID.TID 0000.0001) %MON vort_a_sd                    =   1.0143955575519E-05
(PID.TID 0000.0001) %MON vort_p_mean                  =   8.4848833889124E-05
(PID.TID 0000.0001) %MON vort_p_sd                    =   3.5009327147327E-05
(PID.TID 0000.0001) %MON surfExpan_theta_mean         =   6.2753915549489E-05
(PID.TID 0000.0001) %MON surfExpan_salt_mean          =  -1.0318169295390E-04
(PID.TID 0000.0001) // =======================================================
(PID.TID 0000.0001) // End MONITOR dynamic field statistics
(PID.TID 0000.0001) // =======================================================
(PID.TID 0000.0001) // =======================================================
(PID.TID 0000.0001) // Begin OBCS MONITOR field statistics
(PID.TID 0000.0001) // =======================================================
(PID.TID 0000.0001) %MON obc_N_vVel_max               =   6.7666967100581E-01
(PID.TID 0000.0001) %MON obc_N_vVel_min               =  -7.0494798728577E-01
(PID.TID 0000.0001) %MON obc_N_vVel_mean              =  -6.9566906783681E-03
(PID.TID 0000.0001) %MON obc_N_vVel_sd                =   6.2836351285950E-02
(PID.TID 0000.0001) %MON obc_N_vVel_Int               =  -9.9585614641517E+07
(PID.TID 0000.0001) %MON obc_S_vVel_max               =   1.5947575175839E+00
(PID.TID 0000.0001) %MON obc_S_vVel_min               =  -2.5523170128141E-01
(PID.TID 0000.0001) %MON obc_S_vVel_mean              =  -4.4610877141856E-03
(PID.TID 0000.0001) %MON obc_S_vVel_sd                =   3.6979115682434E-02
(PID.TID 0000.0001) %MON obc_S_vVel_Int               =  -1.3580844571506E+08
(PID.TID 0000.0001) %MON obc_N_theta_max              =   1.6389891921106E+01
(PID.TID 0000.0001) %MON obc_N_theta_min              =   1.8895912667048E+00
(PID.TID 0000.0001) %MON obc_N_theta_mean             =   5.1588992762384E+00
(PID.TID 0000.0001) %MON obc_N_theta_sd               =   3.4826317304761E+00
(PID.TID 0000.0001) %MON obc_S_theta_max              =   2.5543811072233E+01
(PID.TID 0000.0001) %MON obc_S_theta_min              =   1.4633000000465E+00
(PID.TID 0000.0001) %MON obc_S_theta_mean             =   5.4595489249411E+00
(PID.TID 0000.0001) %MON obc_S_theta_sd               =   5.3558944527081E+00
(PID.TID 0000.0001) %MON obc_N_salt_max               =   3.5910863155963E+01
(PID.TID 0000.0001) %MON obc_N_salt_min               =   3.3295074599012E+01
(PID.TID 0000.0001) %MON obc_N_salt_mean              =   3.5114561060497E+01
(PID.TID 0000.0001) %MON obc_N_salt_sd                =   3.0984801720924E-01
(PID.TID 0000.0001) %MON obc_S_salt_max               =   3.7318270902396E+01
(PID.TID 0000.0001) %MON obc_S_salt_min               =   3.4844694888241E+01
(PID.TID 0000.0001) %MON obc_S_salt_mean              =   3.5168372147752E+01
(PID.TID 0000.0001) %MON obc_S_salt_sd                =   4.5716724609566E-01
(PID.TID 0000.0001) // =======================================================
(PID.TID 0000.0001) // End OBCS MONITOR field statistics
(PID.TID 0000.0001) // =======================================================
(PID.TID 0000.0001) // =======================================================
(PID.TID 0000.0001) // Begin MONITOR EXF statistics
(PID.TID 0000.0001) // =======================================================
(PID.TID 0000.0001) %MON exf_tsnumber                 =                    11
(PID.TID 0000.0001) %MON exf_time_sec                 =   2.6400000000000E+03
(PID.TID 0000.0001) %MON exf_ustress_max              =   8.7795864687907E-01
(PID.TID 0000.0001) %MON exf_ustress_min              =  -4.0061958644443E-01
(PID.TID 0000.0001) %MON exf_ustress_mean             =   6.3669428549857E-02
(PID.TID 0000.0001) %MON exf_ustress_sd               =   1.5521771942768E-01
(PID.TID 0000.0001) %MON exf_ustress_del2             =   4.0114053229245E-07
(PID.TID 0000.0001) %MON exf_vstress_max              =   3.9657873126268E-01
(PID.TID 0000.0001) %MON exf_vstress_min              =  -5.6506232903441E-01
(PID.TID 0000.0001) %MON exf_vstress_mean             =   1.1087020379905E-02
(PID.TID 0000.0001) %MON exf_vstress_sd               =   1.0179973064705E-01
(PID.TID 0000.0001) %MON exf_vstress_del2             =   2.9476327864063E-07
(PID.TID 0000.0001) %MON exf_hflux_max                =   1.1797022882718E+03
(PID.TID 0000.0001) %MON exf_hflux_min                =  -2.9365391294229E+02
(PID.TID 0000.0001) %MON exf_hflux_mean               =   2.3958567476960E+02
(PID.TID 0000.0001) %MON exf_hflux_sd                 =   1.4059323857748E+02
(PID.TID 0000.0001) %MON exf_hflux_del2               =   1.0909046366476E-01
(PID.TID 0000.0001) %MON exf_sflux_max                =   2.5793365975719E-07
(PID.TID 0000.0001) %MON exf_sflux_min                =  -1.7748316841359E-06
(PID.TID 0000.0001) %MON exf_sflux_mean               =   1.6598623147184E-08
(PID.TID 0000.0001) %MON exf_sflux_sd                 =   1.3237537110019E-07
(PID.TID 0000.0001) %MON exf_sflux_del2               =   5.2931545346152E-11
(PID.TID 0000.0001) %MON exf_uwind_max                =   1.9943865019974E+01
(PID.TID 0000.0001) %MON exf_uwind_min                =  -1.4821166300168E+01
(PID.TID 0000.0001) %MON exf_uwind_mean               =   2.4840033578552E+00
(PID.TID 0000.0001) %MON exf_uwind_sd                 =   6.6680486724255E+00
(PID.TID 0000.0001) %MON exf_uwind_del2               =   2.8398079812714E-03
(PID.TID 0000.0001) %MON exf_vwind_max                =   1.4520361812334E+01
(PID.TID 0000.0001) %MON exf_vwind_min                =  -1.2796140417213E+01
(PID.TID 0000.0001) %MON exf_vwind_mean               =   8.7009217291920E-01
(PID.TID 0000.0001) %MON exf_vwind_sd                 =   5.1790959716914E+00
(PID.TID 0000.0001) %MON exf_vwind_del2               =   2.0891330136297E-03
(PID.TID 0000.0001) %MON exf_wspeed_max               =   2.0249631828907E+01
(PID.TID 0000.0001) %MON exf_wspeed_min               =   3.7144887530106E-03
(PID.TID 0000.0001) %MON exf_wspeed_mean              =   7.7125728038198E+00
(PID.TID 0000.0001) %MON exf_wspeed_sd                =   4.3277548450455E+00
(PID.TID 0000.0001) %MON exf_wspeed_del2              =   3.5251750821997E-03
(PID.TID 0000.0001) %MON exf_atemp_max                =   2.9815365399267E+02
(PID.TID 0000.0001) %MON exf_atemp_min                =   2.7427014538059E+02
(PID.TID 0000.0001) %MON exf_atemp_mean               =   2.9066781352534E+02
(PID.TID 0000.0001) %MON exf_atemp_sd                 =   3.9458015647656E+00
(PID.TID 0000.0001) %MON exf_atemp_del2               =   6.8363292356366E-03
(PID.TID 0000.0001) %MON exf_aqh_max                  =   1.6745626223720E-02
(PID.TID 0000.0001) %MON exf_aqh_min                  =   2.7148212570767E-03
(PID.TID 0000.0001) %MON exf_aqh_mean                 =   9.4157028205886E-03
(PID.TID 0000.0001) %MON exf_aqh_sd                   =   2.8761932334855E-03
(PID.TID 0000.0001) %MON exf_aqh_del2                 =   3.7480524478943E-06
(PID.TID 0000.0001) %MON exf_lwflux_max               =   1.5367536272936E+02
(PID.TID 0000.0001) %MON exf_lwflux_min               =  -1.6583456704269E+00
(PID.TID 0000.0001) %MON exf_lwflux_mean              =   6.5365498678373E+01
(PID.TID 0000.0001) %MON exf_lwflux_sd                =   2.6559395696872E+01
(PID.TID 0000.0001) %MON exf_lwflux_del2              =   2.7080176334583E-02
(PID.TID 0000.0001) %MON exf_evap_max                 =   2.8508231003897E-07
(PID.TID 0000.0001) %MON exf_evap_min                 =  -9.7999663645784E-08
(PID.TID 0000.0001) %MON exf_evap_mean                =   5.9273951583059E-08
(PID.TID 0000.0001) %MON exf_evap_sd                  =   4.2068333404430E-08
(PID.TID 0000.0001) %MON exf_evap_del2                =   2.8579241912522E-11
(PID.TID 0000.0001) %MON exf_precip_max               =   1.9530076773174E-06
(PID.TID 0000.0001) %MON exf_precip_min               =   0.0000000000000E+00
(PID.TID 0000.0001) %MON exf_precip_mean              =   4.1086849030656E-08
(PID.TID 0000.0001) %MON exf_precip_sd                =   1.3784055398265E-07
(PID.TID 0000.0001) %MON exf_precip_del2              =   5.7829315018580E-11
(PID.TID 0000.0001) %MON exf_swflux_max               =   0.0000000000000E+00
(PID.TID 0000.0001) %MON exf_swflux_min               =   0.0000000000000E+00
(PID.TID 0000.0001) %MON exf_swflux_mean              =   0.0000000000000E+00
(PID.TID 0000.0001) %MON exf_swflux_sd                =   0.0000000000000E+00
(PID.TID 0000.0001) %MON exf_swflux_del2              =   0.0000000000000E+00
(PID.TID 0000.0001) %MON exf_swdown_max               =   0.0000000000000E+00
(PID.TID 0000.0001) %MON exf_swdown_min               =   0.0000000000000E+00
(PID.TID 0000.0001) %MON exf_swdown_mean              =   0.0000000000000E+00
(PID.TID 0000.0001) %MON exf_swdown_sd                =   0.0000000000000E+00
(PID.TID 0000.0001) %MON exf_swdown_del2              =   0.0000000000000E+00
(PID.TID 0000.0001) %MON exf_lwdown_max               =   4.1834379762812E+02
(PID.TID 0000.0001) %MON exf_lwdown_min               =   2.2446257076056E+02
(PID.TID 0000.0001) %MON exf_lwdown_mean              =   3.4966587941356E+02
(PID.TID 0000.0001) %MON exf_lwdown_sd                =   3.1662579062329E+01
(PID.TID 0000.0001) %MON exf_lwdown_del2              =   1.3542704062714E-01
(PID.TID 0000.0001) %MON exf_apressure_max            =   1.0280887953443E+05
(PID.TID 0000.0001) %MON exf_apressure_min            =   1.0001557376642E+05
(PID.TID 0000.0001) %MON exf_apressure_mean           =   1.0216762915247E+05
(PID.TID 0000.0001) %MON exf_apressure_sd             =   4.9875562730687E+02
(PID.TID 0000.0001) %MON exf_apressure_del2           =   3.9520638211190E+01
(PID.TID 0000.0001) %MON exf_runoff_max               =   4.4374791284855E-08
(PID.TID 0000.0001) %MON exf_runoff_min               =   0.0000000000000E+00
(PID.TID 0000.0001) %MON exf_runoff_mean              =   1.5884794052194E-09
(PID.TID 0000.0001) %MON exf_runoff_sd                =   5.3901957917178E-09
(PID.TID 0000.0001) %MON exf_runoff_del2              =   2.2191214937507E-12
(PID.TID 0000.0001) // =======================================================
(PID.TID 0000.0001) // End MONITOR EXF statistics
(PID.TID 0000.0001) // =======================================================
 cg2d: Sum(rhs),rhsMax =   6.76843700356361E+02  1.16465767119785E-01
(PID.TID 0000.0001)      cg2d_init_res =   1.47939173344007E+00
(PID.TID 0000.0001)      cg2d_iters(min,last) =      -1     307
(PID.TID 0000.0001)      cg2d_last_res =   7.03003146368047E-12
(PID.TID 0000.0001) // =======================================================
(PID.TID 0000.0001) // Begin MONITOR dynamic field statistics
(PID.TID 0000.0001) // =======================================================
(PID.TID 0000.0001) %MON time_tsnumber                =                    12
(PID.TID 0000.0001) %MON time_secondsf                =   2.8800000000000E+03
(PID.TID 0000.0001) %MON dynstat_eta_max              =   1.2264772333970E+00
(PID.TID 0000.0001) %MON dynstat_eta_min              =  -9.7941635154249E-01
(PID.TID 0000.0001) %MON dynstat_eta_mean             =  -2.3017492143377E-02
(PID.TID 0000.0001) %MON dynstat_eta_sd               =   2.2077101294800E-01
(PID.TID 0000.0001) %MON dynstat_eta_del2             =   2.2755206692569E-06
(PID.TID 0000.0001) %MON dynstat_uvel_max             =   1.3183617004734E+00
(PID.TID 0000.0001) %MON dynstat_uvel_min             =  -7.0054584281020E-01
(PID.TID 0000.0001) %MON dynstat_uvel_mean            =   7.0352933408156E-04
(PID.TID 0000.0001) %MON dynstat_uvel_sd              =   5.2102249833811E-02
(PID.TID 0000.0001) %MON dynstat_uvel_del2            =   5.2259503507525E-07
(PID.TID 0000.0001) %MON dynstat_vvel_max             =   1.8753486499595E+00
(PID.TID 0000.0001) %MON dynstat_vvel_min             =  -9.1860398507992E-01
(PID.TID 0000.0001) %MON dynstat_vvel_mean            =  -9.9678783790538E-03
(PID.TID 0000.0001) %MON dynstat_vvel_sd              =   4.8387791033645E-02
(PID.TID 0000.0001) %MON dynstat_vvel_del2            =   4.8542350770222E-07
(PID.TID 0000.0001) %MON dynstat_wvel_max             =   3.5786212686277E-02
(PID.TID 0000.0001) %MON dynstat_wvel_min             =  -3.1964007979382E-02
(PID.TID 0000.0001) %MON dynstat_wvel_mean            =  -2.4778772031402E-06
(PID.TID 0000.0001) %MON dynstat_wvel_sd              =   6.0625761435461E-04
(PID.TID 0000.0001) %MON dynstat_wvel_del2            =   7.2292465031432E-08
(PID.TID 0000.0001) %MON dynstat_theta_max            =   2.6145811827249E+01
(PID.TID 0000.0001) %MON dynstat_theta_min            =   1.4688649353983E+00
(PID.TID 0000.0001) %MON dynstat_theta_mean           =   5.5098589890200E+00
(PID.TID 0000.0001) %MON dynstat_theta_sd             =   4.7733724527760E+00
(PID.TID 0000.0001) %MON dynstat_theta_del2           =   4.0074581514180E-06
(PID.TID 0000.0001) %MON dynstat_salt_max             =   3.9152189511000E+01
(PID.TID 0000.0001) %MON dynstat_salt_min             =   3.3099030991274E+01
(PID.TID 0000.0001) %MON dynstat_salt_mean            =   3.5173371249444E+01
(PID.TID 0000.0001) %MON dynstat_salt_sd              =   3.7892379400529E-01
(PID.TID 0000.0001) %MON dynstat_salt_del2            =   5.2671520650316E-07
(PID.TID 0000.0001) %MON forcing_qnet_max             =   1.1978577955690E+03
(PID.TID 0000.0001) %MON forcing_qnet_min             =  -2.9853268650711E+02
(PID.TID 0000.0001) %MON forcing_qnet_mean            =   2.4166917659263E+02
(PID.TID 0000.0001) %MON forcing_qnet_sd              =   1.4227564794168E+02
(PID.TID 0000.0001) %MON forcing_qnet_del2            =   1.6751910430965E-03
(PID.TID 0000.0001) %MON forcing_qsw_max              =   0.0000000000000E+00
(PID.TID 0000.0001) %MON forcing_qsw_min              =   0.0000000000000E+00
(PID.TID 0000.0001) %MON forcing_qsw_mean             =   0.0000000000000E+00
(PID.TID 0000.0001) %MON forcing_qsw_sd               =   0.0000000000000E+00
(PID.TID 0000.0001) %MON forcing_qsw_del2             =   0.0000000000000E+00
(PID.TID 0000.0001) %MON forcing_empmr_max            =   2.5793365975719E-04
(PID.TID 0000.0001) %MON forcing_empmr_min            =  -1.7748316841359E-03
(PID.TID 0000.0001) %MON forcing_empmr_mean           =   1.6598623147184E-05
(PID.TID 0000.0001) %MON forcing_empmr_sd             =   1.3237537110019E-04
(PID.TID 0000.0001) %MON forcing_empmr_del2           =   2.8537075813281E-09
(PID.TID 0000.0001) %MON forcing_fu_max               =   8.7762690790406E-01
(PID.TID 0000.0001) %MON forcing_fu_min               =  -4.0061634527335E-01
(PID.TID 0000.0001) %MON forcing_fu_mean              =   6.3730245754768E-02
(PID.TID 0000.0001) %MON forcing_fu_sd                =   1.5527814580047E-01
(PID.TID 0000.0001) %MON forcing_fu_del2              =   3.6214040746324E-07
(PID.TID 0000.0001) %MON forcing_fv_max               =   3.9652247454827E-01
(PID.TID 0000.0001) %MON forcing_fv_min               =  -5.6950757263765E-01
(PID.TID 0000.0001) %MON forcing_fv_mean              =   1.1069985959334E-02
(PID.TID 0000.0001) %MON forcing_fv_sd                =   1.0193166995113E-01
(PID.TID 0000.0001) %MON forcing_fv_del2              =   2.7386958055917E-07
(PID.TID 0000.0001) %MON trAdv_CFL_u_max              =   7.7578249531661E-02
(PID.TID 0000.0001) %MON trAdv_CFL_v_max              =   1.1896154343483E-01
(PID.TID 0000.0001) %MON trAdv_CFL_w_max              =   5.2035736728148E-01
(PID.TID 0000.0001) %MON advcfl_uvel_max              =   7.7578248475363E-02
(PID.TID 0000.0001) %MON advcfl_vvel_max              =   1.1899652274030E-01
(PID.TID 0000.0001) %MON advcfl_wvel_max              =   5.1168474449345E-01
(PID.TID 0000.0001) %MON advcfl_W_hf_max              =   5.2035736728148E-01
(PID.TID 0000.0001) %MON pe_b_mean                    =  -5.0353477135669E-04
(PID.TID 0000.0001) %MON ke_max                       =   1.7611455367938E+00
(PID.TID 0000.0001) %MON ke_mean                      =   2.5589877488394E-03
(PID.TID 0000.0001) %MON ke_vol                       =   4.5818637279721E+16
(PID.TID 0000.0001) %MON vort_r_min                   =  -5.6751816598639E-04
(PID.TID 0000.0001) %MON vort_r_max                   =   5.4736082674335E-04
(PID.TID 0000.0001) %MON vort_a_mean                  =   8.2147613184839E-05
(PID.TID 0000.0001) %MON vort_a_sd                    =   1.0147279832886E-05
(PID.TID 0000.0001) %MON vort_p_mean                  =   8.4848834168313E-05
(PID.TID 0000.0001) %MON vort_p_sd                    =   3.5014746331205E-05
(PID.TID 0000.0001) %MON surfExpan_theta_mean         =   9.1885096196761E-05
(PID.TID 0000.0001) %MON surfExpan_salt_mean          =  -6.3745633502607E-05
(PID.TID 0000.0001) // =======================================================
(PID.TID 0000.0001) // End MONITOR dynamic field statistics
(PID.TID 0000.0001) // =======================================================
(PID.TID 0000.0001) // =======================================================
(PID.TID 0000.0001) // Begin OBCS MONITOR field statistics
(PID.TID 0000.0001) // =======================================================
(PID.TID 0000.0001) %MON obc_N_vVel_max               =   6.7656633402095E-01
(PID.TID 0000.0001) %MON obc_N_vVel_min               =  -7.0251481840808E-01
(PID.TID 0000.0001) %MON obc_N_vVel_mean              =  -7.0249107828771E-03
(PID.TID 0000.0001) %MON obc_N_vVel_sd                =   6.2831287468565E-02
(PID.TID 0000.0001) %MON obc_N_vVel_Int               =  -1.0056219119962E+08
(PID.TID 0000.0001) %MON obc_S_vVel_max               =   1.5954634155681E+00
(PID.TID 0000.0001) %MON obc_S_vVel_min               =  -2.5512367458055E-01
(PID.TID 0000.0001) %MON obc_S_vVel_mean              =  -4.0874758574692E-03
(PID.TID 0000.0001) %MON obc_S_vVel_sd                =   3.6974960393032E-02
(PID.TID 0000.0001) %MON obc_S_vVel_Int               =  -1.2443461744442E+08
(PID.TID 0000.0001) %MON obc_N_theta_max              =   1.6389803818919E+01
(PID.TID 0000.0001) %MON obc_N_theta_min              =   1.8895913157701E+00
(PID.TID 0000.0001) %MON obc_N_theta_mean             =   5.1588918920883E+00
(PID.TID 0000.0001) %MON obc_N_theta_sd               =   3.4826224400857E+00
(PID.TID 0000.0001) %MON obc_S_theta_max              =   2.5543708323453E+01
(PID.TID 0000.0001) %MON obc_S_theta_min              =   1.4633003963337E+00
(PID.TID 0000.0001) %MON obc_S_theta_mean             =   5.4595481199165E+00
(PID.TID 0000.0001) %MON obc_S_theta_sd               =   5.3558905817403E+00
(PID.TID 0000.0001) %MON obc_N_salt_max               =   3.5910862747600E+01
(PID.TID 0000.0001) %MON obc_N_salt_min               =   3.3295080101645E+01
(PID.TID 0000.0001) %MON obc_N_salt_mean              =   3.5114560764510E+01
(PID.TID 0000.0001) %MON obc_N_salt_sd                =   3.0984789812991E-01
(PID.TID 0000.0001) %MON obc_S_salt_max               =   3.7318264018012E+01
(PID.TID 0000.0001) %MON obc_S_salt_min               =   3.4844694940461E+01
(PID.TID 0000.0001) %MON obc_S_salt_mean              =   3.5168372075835E+01
(PID.TID 0000.0001) %MON obc_S_salt_sd                =   4.5716689507451E-01
(PID.TID 0000.0001) // =======================================================
(PID.TID 0000.0001) // End OBCS MONITOR field statistics
(PID.TID 0000.0001) // =======================================================
(PID.TID 0000.0001) // =======================================================
(PID.TID 0000.0001) // Begin MONITOR EXF statistics
(PID.TID 0000.0001) // =======================================================
(PID.TID 0000.0001) %MON exf_tsnumber                 =                    12
(PID.TID 0000.0001) %MON exf_time_sec                 =   2.8800000000000E+03
(PID.TID 0000.0001) %MON exf_ustress_max              =   8.9067810994218E-01
(PID.TID 0000.0001) %MON exf_ustress_min              =  -3.9835199354424E-01
(PID.TID 0000.0001) %MON exf_ustress_mean             =   6.3871566692014E-02
(PID.TID 0000.0001) %MON exf_ustress_sd               =   1.5548353841906E-01
(PID.TID 0000.0001) %MON exf_ustress_del2             =   4.1482999927196E-07
(PID.TID 0000.0001) %MON exf_vstress_max              =   4.0039143928860E-01
(PID.TID 0000.0001) %MON exf_vstress_min              =  -5.6660136035528E-01
(PID.TID 0000.0001) %MON exf_vstress_mean             =   1.1160514118094E-02
(PID.TID 0000.0001) %MON exf_vstress_sd               =   1.0205553825388E-01
(PID.TID 0000.0001) %MON exf_vstress_del2             =   3.0988712973304E-07
(PID.TID 0000.0001) %MON exf_hflux_max                =   1.1865739061054E+03
(PID.TID 0000.0001) %MON exf_hflux_min                =  -2.9637772005459E+02
(PID.TID 0000.0001) %MON exf_hflux_mean               =   2.3964472677411E+02
(PID.TID 0000.0001) %MON exf_hflux_sd                 =   1.4079842414233E+02
(PID.TID 0000.0001) %MON exf_hflux_del2               =   1.0916979987881E-01
(PID.TID 0000.0001) %MON exf_sflux_max                =   2.5868609800359E-07
(PID.TID 0000.0001) %MON exf_sflux_min                =  -1.7936417599340E-06
(PID.TID 0000.0001) %MON exf_sflux_mean               =   1.6373123759045E-08
(PID.TID 0000.0001) %MON exf_sflux_sd                 =   1.3237986572741E-07
(PID.TID 0000.0001) %MON exf_sflux_del2               =   5.2807240900407E-11
(PID.TID 0000.0001) %MON exf_uwind_max                =   2.0058765451896E+01
(PID.TID 0000.0001) %MON exf_uwind_min                =  -1.4797001480708E+01
(PID.TID 0000.0001) %MON exf_uwind_mean               =   2.4861317944621E+00
(PID.TID 0000.0001) %MON exf_uwind_sd                 =   6.6698673982880E+00
(PID.TID 0000.0001) %MON exf_uwind_del2               =   2.8407734552780E-03
(PID.TID 0000.0001) %MON exf_vwind_max                =   1.4586829599800E+01
(PID.TID 0000.0001) %MON exf_vwind_min                =  -1.2814589119212E+01
(PID.TID 0000.0001) %MON exf_vwind_mean               =   8.7213872450925E-01
(PID.TID 0000.0001) %MON exf_vwind_sd                 =   5.1826304910186E+00
(PID.TID 0000.0001) %MON exf_vwind_del2               =   2.0910041188583E-03
(PID.TID 0000.0001) %MON exf_wspeed_max               =   2.0242022100398E+01
(PID.TID 0000.0001) %MON exf_wspeed_min               =   1.3774460288667E-02
(PID.TID 0000.0001) %MON exf_wspeed_mean              =   7.7148340528108E+00
(PID.TID 0000.0001) %MON exf_wspeed_sd                =   4.3323899534778E+00
(PID.TID 0000.0001) %MON exf_wspeed_del2              =   3.5270487192190E-03
(PID.TID 0000.0001) %MON exf_atemp_max                =   2.9815145670426E+02
(PID.TID 0000.0001) %MON exf_atemp_min                =   2.7424454417195E+02
(PID.TID 0000.0001) %MON exf_atemp_mean               =   2.9066469231915E+02
(PID.TID 0000.0001) %MON exf_atemp_sd                 =   3.9466897201915E+00
(PID.TID 0000.0001) %MON exf_atemp_del2               =   6.8351870032580E-03
(PID.TID 0000.0001) %MON exf_aqh_max                  =   1.6738639922846E-02
(PID.TID 0000.0001) %MON exf_aqh_min                  =   2.7125265593127E-03
(PID.TID 0000.0001) %MON exf_aqh_mean                 =   9.4145146677745E-03
(PID.TID 0000.0001) %MON exf_aqh_sd                   =   2.8774129248554E-03
(PID.TID 0000.0001) %MON exf_aqh_del2                 =   3.7476715225364E-06
(PID.TID 0000.0001) %MON exf_lwflux_max               =   1.5394668972352E+02
(PID.TID 0000.0001) %MON exf_lwflux_min               =  -2.5800955169294E-01
(PID.TID 0000.0001) %MON exf_lwflux_mean              =   6.5347628809547E+01
(PID.TID 0000.0001) %MON exf_lwflux_sd                =   2.6516073158392E+01
(PID.TID 0000.0001) %MON exf_lwflux_del2              =   2.7065104215668E-02
(PID.TID 0000.0001) %MON exf_evap_max                 =   2.8714049646072E-07
(PID.TID 0000.0001) %MON exf_evap_min                 =  -9.8875839981398E-08
(PID.TID 0000.0001) %MON exf_evap_mean                =   5.9291587467148E-08
(PID.TID 0000.0001) %MON exf_evap_sd                  =   4.2105722274243E-08
(PID.TID 0000.0001) %MON exf_evap_del2                =   2.8598993883320E-11
(PID.TID 0000.0001) %MON exf_precip_max               =   1.9724582042779E-06
(PID.TID 0000.0001) %MON exf_precip_min               =   0.0000000000000E+00
(PID.TID 0000.0001) %MON exf_precip_mean              =   4.1329984302883E-08
(PID.TID 0000.0001) %MON exf_precip_sd                =   1.3800384791430E-07
(PID.TID 0000.0001) %MON exf_precip_del2              =   5.7808090136640E-11
(PID.TID 0000.0001) %MON exf_swflux_max               =   0.0000000000000E+00
(PID.TID 0000.0001) %MON exf_swflux_min               =   0.0000000000000E+00
(PID.TID 0000.0001) %MON exf_swflux_mean              =   0.0000000000000E+00
(PID.TID 0000.0001) %MON exf_swflux_sd                =   0.0000000000000E+00
(PID.TID 0000.0001) %MON exf_swflux_del2              =   0.0000000000000E+00
(PID.TID 0000.0001) %MON exf_swdown_max               =   0.0000000000000E+00
(PID.TID 0000.0001) %MON exf_swdown_min               =   0.0000000000000E+00
(PID.TID 0000.0001) %MON exf_swdown_mean              =   0.0000000000000E+00
(PID.TID 0000.0001) %MON exf_swdown_sd                =   0.0000000000000E+00
(PID.TID 0000.0001) %MON exf_swdown_del2              =   0.0000000000000E+00
(PID.TID 0000.0001) %MON exf_lwdown_max               =   4.1837492023739E+02
(PID.TID 0000.0001) %MON exf_lwdown_min               =   2.2467589834697E+02
(PID.TID 0000.0001) %MON exf_lwdown_mean              =   3.4968037056656E+02
(PID.TID 0000.0001) %MON exf_lwdown_sd                =   3.1587078891321E+01
(PID.TID 0000.0001) %MON exf_lwdown_del2              =   1.3543115719897E-01
(PID.TID 0000.0001) %MON exf_apressure_max            =   1.0281199025705E+05
(PID.TID 0000.0001) %MON exf_apressure_min            =   1.0001627344352E+05
(PID.TID 0000.0001) %MON exf_apressure_mean           =   1.0216840645902E+05
(PID.TID 0000.0001) %MON exf_apressure_sd             =   4.9879168551480E+02
(PID.TID 0000.0001) %MON exf_apressure_del2           =   3.9520945946583E+01
(PID.TID 0000.0001) %MON exf_runoff_max               =   4.4374791284855E-08
(PID.TID 0000.0001) %MON exf_runoff_min               =   0.0000000000000E+00
(PID.TID 0000.0001) %MON exf_runoff_mean              =   1.5884794052194E-09
(PID.TID 0000.0001) %MON exf_runoff_sd                =   5.3901957917178E-09
(PID.TID 0000.0001) %MON exf_runoff_del2              =   2.2191214937507E-12
(PID.TID 0000.0001) // =======================================================
(PID.TID 0000.0001) // End MONITOR EXF statistics
(PID.TID 0000.0001) // =======================================================
 cg2d: Sum(rhs),rhsMax =   6.84016231134851E+02  1.32567079672384E-01
(PID.TID 0000.0001)      cg2d_init_res =   1.41609625574066E+00
(PID.TID 0000.0001)      cg2d_iters(min,last) =      -1     310
(PID.TID 0000.0001)      cg2d_last_res =   6.66007304065058E-12
(PID.TID 0000.0001) // =======================================================
(PID.TID 0000.0001) // Begin MONITOR dynamic field statistics
(PID.TID 0000.0001) // =======================================================
(PID.TID 0000.0001) %MON time_tsnumber                =                    13
(PID.TID 0000.0001) %MON time_secondsf                =   3.1200000000000E+03
(PID.TID 0000.0001) %MON dynstat_eta_max              =   1.1169199688391E+00
(PID.TID 0000.0001) %MON dynstat_eta_min              =  -9.9864326493867E-01
(PID.TID 0000.0001) %MON dynstat_eta_mean             =  -2.3261409122667E-02
(PID.TID 0000.0001) %MON dynstat_eta_sd               =   2.2574283175123E-01
(PID.TID 0000.0001) %MON dynstat_eta_del2             =   2.2732771202518E-06
(PID.TID 0000.0001) %MON dynstat_uvel_max             =   1.3019504425614E+00
(PID.TID 0000.0001) %MON dynstat_uvel_min             =  -7.0078216665483E-01
(PID.TID 0000.0001) %MON dynstat_uvel_mean            =   2.9687806333520E-04
(PID.TID 0000.0001) %MON dynstat_uvel_sd              =   5.2079776262695E-02
(PID.TID 0000.0001) %MON dynstat_uvel_del2            =   5.3024633262264E-07
(PID.TID 0000.0001) %MON dynstat_vvel_max             =   1.8746645915422E+00
(PID.TID 0000.0001) %MON dynstat_vvel_min             =  -9.1782164427131E-01
(PID.TID 0000.0001) %MON dynstat_vvel_mean            =  -1.0385662468026E-02
(PID.TID 0000.0001) %MON dynstat_vvel_sd              =   4.8437885869374E-02
(PID.TID 0000.0001) %MON dynstat_vvel_del2            =   4.9300306261275E-07
(PID.TID 0000.0001) %MON dynstat_wvel_max             =   3.7103856212909E-02
(PID.TID 0000.0001) %MON dynstat_wvel_min             =  -3.2488002668755E-02
(PID.TID 0000.0001) %MON dynstat_wvel_mean            =  -1.8066033109097E-06
(PID.TID 0000.0001) %MON dynstat_wvel_sd              =   6.0943411000973E-04
(PID.TID 0000.0001) %MON dynstat_wvel_del2            =   7.0997898129888E-08
(PID.TID 0000.0001) %MON dynstat_theta_max            =   2.6147480417349E+01
(PID.TID 0000.0001) %MON dynstat_theta_min            =   1.4688649695832E+00
(PID.TID 0000.0001) %MON dynstat_theta_mean           =   5.5098476190126E+00
(PID.TID 0000.0001) %MON dynstat_theta_sd             =   4.7733379491006E+00
(PID.TID 0000.0001) %MON dynstat_theta_del2           =   4.0089986554981E-06
(PID.TID 0000.0001) %MON dynstat_salt_max             =   3.9147967422814E+01
(PID.TID 0000.0001) %MON dynstat_salt_min             =   3.3100103953817E+01
(PID.TID 0000.0001) %MON dynstat_salt_mean            =   3.5173370431983E+01
(PID.TID 0000.0001) %MON dynstat_salt_sd              =   3.7892254936476E-01
(PID.TID 0000.0001) %MON dynstat_salt_del2            =   5.2920956076279E-07
(PID.TID 0000.0001) %MON forcing_qnet_max             =   1.2048638065957E+03
(PID.TID 0000.0001) %MON forcing_qnet_min             =  -3.0129374949532E+02
(PID.TID 0000.0001) %MON forcing_qnet_mean            =   2.4171355652674E+02
(PID.TID 0000.0001) %MON forcing_qnet_sd              =   1.4245869895617E+02
(PID.TID 0000.0001) %MON forcing_qnet_del2            =   1.6781349873430E-03
(PID.TID 0000.0001) %MON forcing_qsw_max              =   0.0000000000000E+00
(PID.TID 0000.0001) %MON forcing_qsw_min              =   0.0000000000000E+00
(PID.TID 0000.0001) %MON forcing_qsw_mean             =   0.0000000000000E+00
(PID.TID 0000.0001) %MON forcing_qsw_sd               =   0.0000000000000E+00
(PID.TID 0000.0001) %MON forcing_qsw_del2             =   0.0000000000000E+00
(PID.TID 0000.0001) %MON forcing_empmr_max            =   2.5868609800359E-04
(PID.TID 0000.0001) %MON forcing_empmr_min            =  -1.7936417599340E-03
(PID.TID 0000.0001) %MON forcing_empmr_mean           =   1.6373123759045E-05
(PID.TID 0000.0001) %MON forcing_empmr_sd             =   1.3237986572741E-04
(PID.TID 0000.0001) %MON forcing_empmr_del2           =   2.7395182823430E-09
(PID.TID 0000.0001) %MON forcing_fu_max               =   8.9061653466277E-01
(PID.TID 0000.0001) %MON forcing_fu_min               =  -3.9827171276933E-01
(PID.TID 0000.0001) %MON forcing_fu_mean              =   6.3932927532752E-02
(PID.TID 0000.0001) %MON forcing_fu_sd                =   1.5554409506720E-01
(PID.TID 0000.0001) %MON forcing_fu_del2              =   3.7595595934948E-07
(PID.TID 0000.0001) %MON forcing_fv_max               =   4.0020548219073E-01
(PID.TID 0000.0001) %MON forcing_fv_min               =  -5.7115664206051E-01
(PID.TID 0000.0001) %MON forcing_fv_mean              =   1.1143831859116E-02
(PID.TID 0000.0001) %MON forcing_fv_sd                =   1.0218758049730E-01
(PID.TID 0000.0001) %MON forcing_fv_del2              =   2.8851918560948E-07
(PID.TID 0000.0001) %MON trAdv_CFL_u_max              =   7.7190905883410E-02
(PID.TID 0000.0001) %MON trAdv_CFL_v_max              =   1.1890552032823E-01
(PID.TID 0000.0001) %MON trAdv_CFL_w_max              =   5.2706173341388E-01
(PID.TID 0000.0001) %MON advcfl_uvel_max              =   7.7190904832386E-02
(PID.TID 0000.0001) %MON advcfl_vvel_max              =   1.1894379101847E-01
(PID.TID 0000.0001) %MON advcfl_wvel_max              =   5.1827737119032E-01
(PID.TID 0000.0001) %MON advcfl_W_hf_max              =   5.2706173341388E-01
(PID.TID 0000.0001) %MON pe_b_mean                    =  -5.0631306989177E-04
(PID.TID 0000.0001) %MON ke_max                       =   1.7594300796621E+00
(PID.TID 0000.0001) %MON ke_mean                      =   2.5642664726528E-03
(PID.TID 0000.0001) %MON ke_vol                       =   4.5818637279721E+16
(PID.TID 0000.0001) %MON vort_r_min                   =  -5.6804095819382E-04
(PID.TID 0000.0001) %MON vort_r_max                   =   5.5382396466858E-04
(PID.TID 0000.0001) %MON vort_a_mean                  =   8.2147613468824E-05
(PID.TID 0000.0001) %MON vort_a_sd                    =   1.0150621850983E-05
(PID.TID 0000.0001) %MON vort_p_mean                  =   8.4848834461636E-05
(PID.TID 0000.0001) %MON vort_p_sd                    =   3.5020496057721E-05
(PID.TID 0000.0001) %MON surfExpan_theta_mean         =   1.2181249406240E-04
(PID.TID 0000.0001) %MON surfExpan_salt_mean          =  -2.4028043501902E-05
(PID.TID 0000.0001) // =======================================================
(PID.TID 0000.0001) // End MONITOR dynamic field statistics
(PID.TID 0000.0001) // =======================================================
(PID.TID 0000.0001) // =======================================================
(PID.TID 0000.0001) // Begin OBCS MONITOR field statistics
(PID.TID 0000.0001) // =======================================================
(PID.TID 0000.0001) %MON obc_N_vVel_max               =   6.7646861494290E-01
(PID.TID 0000.0001) %MON obc_N_vVel_min               =  -6.9941508803201E-01
(PID.TID 0000.0001) %MON obc_N_vVel_mean              =  -7.0842033574241E-03
(PID.TID 0000.0001) %MON obc_N_vVel_sd                =   6.2823570815794E-02
(PID.TID 0000.0001) %MON obc_N_vVel_Int               =  -1.0141096941227E+08
(PID.TID 0000.0001) %MON obc_S_vVel_max               =   1.5961404762761E+00
(PID.TID 0000.0001) %MON obc_S_vVel_min               =  -2.5501853546460E-01
(PID.TID 0000.0001) %MON obc_S_vVel_mean              =  -3.7084799173283E-03
(PID.TID 0000.0001) %MON obc_S_vVel_sd                =   3.6970099799203E-02
(PID.TID 0000.0001) %MON obc_S_vVel_Int               =  -1.1289688206227E+08
(PID.TID 0000.0001) %MON obc_N_theta_max              =   1.6389715716732E+01
(PID.TID 0000.0001) %MON obc_N_theta_min              =   1.8895913648355E+00
(PID.TID 0000.0001) %MON obc_N_theta_mean             =   5.1588845079383E+00
(PID.TID 0000.0001) %MON obc_N_theta_sd               =   3.4826131499334E+00
(PID.TID 0000.0001) %MON obc_S_theta_max              =   2.5543605574674E+01
(PID.TID 0000.0001) %MON obc_S_theta_min              =   1.4633007926210E+00
(PID.TID 0000.0001) %MON obc_S_theta_mean             =   5.4595473148919E+00
(PID.TID 0000.0001) %MON obc_S_theta_sd               =   5.3558867108083E+00
(PID.TID 0000.0001) %MON obc_N_salt_max               =   3.5910862339236E+01
(PID.TID 0000.0001) %MON obc_N_salt_min               =   3.3295085604278E+01
(PID.TID 0000.0001) %MON obc_N_salt_mean              =   3.5114560468523E+01
(PID.TID 0000.0001) %MON obc_N_salt_sd                =   3.0984777908893E-01
(PID.TID 0000.0001) %MON obc_S_salt_max               =   3.7318257133628E+01
(PID.TID 0000.0001) %MON obc_S_salt_min               =   3.4844694992682E+01
(PID.TID 0000.0001) %MON obc_S_salt_mean              =   3.5168372003918E+01
(PID.TID 0000.0001) %MON obc_S_salt_sd                =   4.5716654406676E-01
(PID.TID 0000.0001) // =======================================================
(PID.TID 0000.0001) // End OBCS MONITOR field statistics
(PID.TID 0000.0001) // =======================================================
(PID.TID 0000.0001) // =======================================================
(PID.TID 0000.0001) // Begin MONITOR EXF statistics
(PID.TID 0000.0001) // =======================================================
(PID.TID 0000.0001) %MON exf_tsnumber                 =                    13
(PID.TID 0000.0001) %MON exf_time_sec                 =   3.1200000000000E+03
(PID.TID 0000.0001) %MON exf_ustress_max              =   9.0433461301023E-01
(PID.TID 0000.0001) %MON exf_ustress_min              =  -3.9613567503815E-01
(PID.TID 0000.0001) %MON exf_ustress_mean             =   6.4098199405403E-02
(PID.TID 0000.0001) %MON exf_ustress_sd               =   1.5582333586025E-01
(PID.TID 0000.0001) %MON exf_ustress_del2             =   4.3115301852812E-07
(PID.TID 0000.0001) %MON exf_vstress_max              =   4.0504712959951E-01
(PID.TID 0000.0001) %MON exf_vstress_min              =  -5.6819489629577E-01
(PID.TID 0000.0001) %MON exf_vstress_mean             =   1.1234351629186E-02
(PID.TID 0000.0001) %MON exf_vstress_sd               =   1.0237553382375E-01
(PID.TID 0000.0001) %MON exf_vstress_del2             =   3.2822497938560E-07
(PID.TID 0000.0001) %MON exf_hflux_max                =   1.1935752383153E+03
(PID.TID 0000.0001) %MON exf_hflux_min                =  -2.9915931744619E+02
(PID.TID 0000.0001) %MON exf_hflux_mean               =   2.3972646519095E+02
(PID.TID 0000.0001) %MON exf_hflux_sd                 =   1.4104345628297E+02
(PID.TID 0000.0001) %MON exf_hflux_del2               =   1.0926665055033E-01
(PID.TID 0000.0001) %MON exf_sflux_max                =   2.5974029057493E-07
(PID.TID 0000.0001) %MON exf_sflux_min                =  -1.8124536768968E-06
(PID.TID 0000.0001) %MON exf_sflux_mean               =   1.6154894668477E-08
(PID.TID 0000.0001) %MON exf_sflux_sd                 =   1.3269300247145E-07
(PID.TID 0000.0001) %MON exf_sflux_del2               =   5.2816248914999E-11
(PID.TID 0000.0001) %MON exf_uwind_max                =   2.0175805650157E+01
(PID.TID 0000.0001) %MON exf_uwind_min                =  -1.4775575364455E+01
(PID.TID 0000.0001) %MON exf_uwind_mean               =   2.4882939647367E+00
(PID.TID 0000.0001) %MON exf_uwind_sd                 =   6.6723928663545E+00
(PID.TID 0000.0001) %MON exf_uwind_del2               =   2.8420083052785E-03
(PID.TID 0000.0001) %MON exf_vwind_max                =   1.4664870352018E+01
(PID.TID 0000.0001) %MON exf_vwind_min                =  -1.2838851240107E+01
(PID.TID 0000.0001) %MON exf_vwind_mean               =   8.7411768567748E-01
(PID.TID 0000.0001) %MON exf_vwind_sd                 =   5.1876275338088E+00
(PID.TID 0000.0001) %MON exf_vwind_del2               =   2.0934567005063E-03
(PID.TID 0000.0001) %MON exf_wspeed_max               =   2.0275095290207E+01
(PID.TID 0000.0001) %MON exf_wspeed_min               =   1.0763504653789E-03
(PID.TID 0000.0001) %MON exf_wspeed_mean              =   7.7181593012340E+00
(PID.TID 0000.0001) %MON exf_wspeed_sd                =   4.3379732106876E+00
(PID.TID 0000.0001) %MON exf_wspeed_del2              =   3.5294813325075E-03
(PID.TID 0000.0001) %MON exf_atemp_max                =   2.9814925941584E+02
(PID.TID 0000.0001) %MON exf_atemp_min                =   2.7421894296331E+02
(PID.TID 0000.0001) %MON exf_atemp_mean               =   2.9066157111295E+02
(PID.TID 0000.0001) %MON exf_atemp_sd                 =   3.9477200203663E+00
(PID.TID 0000.0001) %MON exf_atemp_del2               =   6.8340585425561E-03
(PID.TID 0000.0001) %MON exf_aqh_max                  =   1.6731653621973E-02
(PID.TID 0000.0001) %MON exf_aqh_min                  =   2.7102318615487E-03
(PID.TID 0000.0001) %MON exf_aqh_mean                 =   9.4133265149605E-03
(PID.TID 0000.0001) %MON exf_aqh_sd                   =   2.8788045368042E-03
(PID.TID 0000.0001) %MON exf_aqh_del2                 =   3.7473124270333E-06
(PID.TID 0000.0001) %MON exf_lwflux_max               =   1.5421771111526E+02
(PID.TID 0000.0001) %MON exf_lwflux_min               =  -2.2891908298133E-01
(PID.TID 0000.0001) %MON exf_lwflux_mean              =   6.5329914137503E+01
(PID.TID 0000.0001) %MON exf_lwflux_sd                =   2.6491979759656E+01
(PID.TID 0000.0001) %MON exf_lwflux_del2              =   2.7053148393721E-02
(PID.TID 0000.0001) %MON exf_evap_max                 =   2.8936526621383E-07
(PID.TID 0000.0001) %MON exf_evap_min                 =  -9.9768215258232E-08
(PID.TID 0000.0001) %MON exf_evap_mean                =   5.9316493648808E-08
(PID.TID 0000.0001) %MON exf_evap_sd                  =   4.2155155990037E-08
(PID.TID 0000.0001) %MON exf_evap_del2                =   2.8624183888161E-11
(PID.TID 0000.0001) %MON exf_precip_max               =   1.9919087312383E-06
(PID.TID 0000.0001) %MON exf_precip_min               =   0.0000000000000E+00
(PID.TID 0000.0001) %MON exf_precip_mean              =   4.1573119575111E-08
(PID.TID 0000.0001) %MON exf_precip_sd                =   1.3847173982181E-07
(PID.TID 0000.0001) %MON exf_precip_del2              =   5.7911885402760E-11
(PID.TID 0000.0001) %MON exf_swflux_max               =   0.0000000000000E+00
(PID.TID 0000.0001) %MON exf_swflux_min               =   0.0000000000000E+00
(PID.TID 0000.0001) %MON exf_swflux_mean              =   0.0000000000000E+00
(PID.TID 0000.0001) %MON exf_swflux_sd                =   0.0000000000000E+00
(PID.TID 0000.0001) %MON exf_swflux_del2              =   0.0000000000000E+00
(PID.TID 0000.0001) %MON exf_swdown_max               =   0.0000000000000E+00
(PID.TID 0000.0001) %MON exf_swdown_min               =   0.0000000000000E+00
(PID.TID 0000.0001) %MON exf_swdown_mean              =   0.0000000000000E+00
(PID.TID 0000.0001) %MON exf_swdown_sd                =   0.0000000000000E+00
(PID.TID 0000.0001) %MON exf_swdown_del2              =   0.0000000000000E+00
(PID.TID 0000.0001) %MON exf_lwdown_max               =   4.1840604284666E+02
(PID.TID 0000.0001) %MON exf_lwdown_min               =   2.2445126639892E+02
(PID.TID 0000.0001) %MON exf_lwdown_mean              =   3.4969486171956E+02
(PID.TID 0000.0001) %MON exf_lwdown_sd                =   3.1528634700620E+01
(PID.TID 0000.0001) %MON exf_lwdown_del2              =   1.3543592526740E-01
(PID.TID 0000.0001) %MON exf_apressure_max            =   1.0281513960403E+05
(PID.TID 0000.0001) %MON exf_apressure_min            =   1.0001593693690E+05
(PID.TID 0000.0001) %MON exf_apressure_mean           =   1.0216918376558E+05
(PID.TID 0000.0001) %MON exf_apressure_sd             =   4.9886755904092E+02
(PID.TID 0000.0001) %MON exf_apressure_del2           =   3.9521253763380E+01
(PID.TID 0000.0001) %MON exf_runoff_max               =   4.4374791284855E-08
(PID.TID 0000.0001) %MON exf_runoff_min               =   0.0000000000000E+00
(PID.TID 0000.0001) %MON exf_runoff_mean              =   1.5884794052194E-09
(PID.TID 0000.0001) %MON exf_runoff_sd                =   5.3901957917178E-09
(PID.TID 0000.0001) %MON exf_runoff_del2              =   2.2191214937507E-12
(PID.TID 0000.0001) // =======================================================
(PID.TID 0000.0001) // End MONITOR EXF statistics
(PID.TID 0000.0001) // =======================================================
 cg2d: Sum(rhs),rhsMax =   6.83439813382436E+02  1.40547244863383E-01
(PID.TID 0000.0001)      cg2d_init_res =   1.42109864099122E+00
(PID.TID 0000.0001)      cg2d_iters(min,last) =      -1     310
(PID.TID 0000.0001)      cg2d_last_res =   6.84904095085561E-12
(PID.TID 0000.0001) // =======================================================
(PID.TID 0000.0001) // Begin MONITOR dynamic field statistics
(PID.TID 0000.0001) // =======================================================
(PID.TID 0000.0001) %MON time_tsnumber                =                    14
(PID.TID 0000.0001) %MON time_secondsf                =   3.3600000000000E+03
(PID.TID 0000.0001) %MON dynstat_eta_max              =   1.1202857513286E+00
(PID.TID 0000.0001) %MON dynstat_eta_min              =  -1.0356797212454E+00
(PID.TID 0000.0001) %MON dynstat_eta_mean             =  -2.3241806825887E-02
(PID.TID 0000.0001) %MON dynstat_eta_sd               =   2.3090079611609E-01
(PID.TID 0000.0001) %MON dynstat_eta_del2             =   2.2980345730168E-06
(PID.TID 0000.0001) %MON dynstat_uvel_max             =   1.2669122250604E+00
(PID.TID 0000.0001) %MON dynstat_uvel_min             =  -7.0134494196801E-01
(PID.TID 0000.0001) %MON dynstat_uvel_mean            =  -1.1275272984078E-04
(PID.TID 0000.0001) %MON dynstat_uvel_sd              =   5.2062558690627E-02
(PID.TID 0000.0001) %MON dynstat_uvel_del2            =   5.3822003771379E-07
(PID.TID 0000.0001) %MON dynstat_vvel_max             =   1.8733971412469E+00
(PID.TID 0000.0001) %MON dynstat_vvel_min             =  -9.1672194830218E-01
(PID.TID 0000.0001) %MON dynstat_vvel_mean            =  -1.0730928708993E-02
(PID.TID 0000.0001) %MON dynstat_vvel_sd              =   4.8483189754149E-02
(PID.TID 0000.0001) %MON dynstat_vvel_del2            =   5.0107627635156E-07
(PID.TID 0000.0001) %MON dynstat_wvel_max             =   3.8464218929925E-02
(PID.TID 0000.0001) %MON dynstat_wvel_min             =  -3.2910958123176E-02
(PID.TID 0000.0001) %MON dynstat_wvel_mean            =  -1.1326476765792E-06
(PID.TID 0000.0001) %MON dynstat_wvel_sd              =   6.1248136487842E-04
(PID.TID 0000.0001) %MON dynstat_wvel_del2            =   7.0409625437520E-08
(PID.TID 0000.0001) %MON dynstat_theta_max            =   2.6148987312038E+01
(PID.TID 0000.0001) %MON dynstat_theta_min            =   1.4688651129745E+00
(PID.TID 0000.0001) %MON dynstat_theta_mean           =   5.5098347971394E+00
(PID.TID 0000.0001) %MON dynstat_theta_sd             =   4.7733004983257E+00
(PID.TID 0000.0001) %MON dynstat_theta_del2           =   4.0099196637285E-06
(PID.TID 0000.0001) %MON dynstat_salt_max             =   3.9143566781137E+01
(PID.TID 0000.0001) %MON dynstat_salt_min             =   3.3101211484080E+01
(PID.TID 0000.0001) %MON dynstat_salt_mean            =   3.5173369537780E+01
(PID.TID 0000.0001) %MON dynstat_salt_sd              =   3.7892114277835E-01
(PID.TID 0000.0001) %MON dynstat_salt_del2            =   5.3140519753777E-07
(PID.TID 0000.0001) %MON forcing_qnet_max             =   1.2120021224994E+03
(PID.TID 0000.0001) %MON forcing_qnet_min             =  -3.0411326906976E+02
(PID.TID 0000.0001) %MON forcing_qnet_mean            =   2.4178137819606E+02
(PID.TID 0000.0001) %MON forcing_qnet_sd              =   1.4268167119846E+02
(PID.TID 0000.0001) %MON forcing_qnet_del2            =   1.6893786278340E-03
(PID.TID 0000.0001) %MON forcing_qsw_max              =   0.0000000000000E+00
(PID.TID 0000.0001) %MON forcing_qsw_min              =   0.0000000000000E+00
(PID.TID 0000.0001) %MON forcing_qsw_mean             =   0.0000000000000E+00
(PID.TID 0000.0001) %MON forcing_qsw_sd               =   0.0000000000000E+00
(PID.TID 0000.0001) %MON forcing_qsw_del2             =   0.0000000000000E+00
(PID.TID 0000.0001) %MON forcing_empmr_max            =   2.5974029057493E-04
(PID.TID 0000.0001) %MON forcing_empmr_min            =  -1.8124536768968E-03
(PID.TID 0000.0001) %MON forcing_empmr_mean           =   1.6154894668477E-05
(PID.TID 0000.0001) %MON forcing_empmr_sd             =   1.3269300247145E-04
(PID.TID 0000.0001) %MON forcing_empmr_del2           =   2.6590169749722E-09
(PID.TID 0000.0001) %MON forcing_fu_max               =   9.0391286134649E-01
(PID.TID 0000.0001) %MON forcing_fu_min               =  -3.9612525889137E-01
(PID.TID 0000.0001) %MON forcing_fu_mean              =   6.4160123402853E-02
(PID.TID 0000.0001) %MON forcing_fu_sd                =   1.5588401716264E-01
(PID.TID 0000.0001) %MON forcing_fu_del2              =   3.9261450009068E-07
(PID.TID 0000.0001) %MON forcing_fv_max               =   4.0499092175787E-01
(PID.TID 0000.0001) %MON forcing_fv_min               =  -5.7301532792578E-01
(PID.TID 0000.0001) %MON forcing_fv_mean              =   1.1218042195539E-02
(PID.TID 0000.0001) %MON forcing_fv_sd                =   1.0250763277199E-01
(PID.TID 0000.0001) %MON forcing_fv_del2              =   3.0616914264818E-07
(PID.TID 0000.0001) %MON trAdv_CFL_u_max              =   7.6864531212438E-02
(PID.TID 0000.0001) %MON trAdv_CFL_v_max              =   1.1881032682769E-01
(PID.TID 0000.0001) %MON trAdv_CFL_w_max              =   5.3100938214730E-01
(PID.TID 0000.0001) %MON advcfl_uvel_max              =   7.6864530165858E-02
(PID.TID 0000.0001) %MON advcfl_vvel_max              =   1.1884856687914E-01
(PID.TID 0000.0001) %MON advcfl_wvel_max              =   5.2215922577818E-01
(PID.TID 0000.0001) %MON advcfl_W_hf_max              =   5.3100938214730E-01
(PID.TID 0000.0001) %MON pe_b_mean                    =  -5.0241137526303E-04
(PID.TID 0000.0001) %MON ke_max                       =   1.7572467868219E+00
(PID.TID 0000.0001) %MON ke_mean                      =   2.5691501924141E-03
(PID.TID 0000.0001) %MON ke_vol                       =   4.5818637279721E+16
(PID.TID 0000.0001) %MON vort_r_min                   =  -5.6774782227107E-04
(PID.TID 0000.0001) %MON vort_r_max                   =   5.6042579609551E-04
(PID.TID 0000.0001) %MON vort_a_mean                  =   8.2147613766207E-05
(PID.TID 0000.0001) %MON vort_a_sd                    =   1.0153978012716E-05
(PID.TID 0000.0001) %MON vort_p_mean                  =   8.4848834768798E-05
(PID.TID 0000.0001) %MON vort_p_sd                    =   3.5026506535670E-05
(PID.TID 0000.0001) %MON surfExpan_theta_mean         =   1.5244079539094E-04
(PID.TID 0000.0001) %MON surfExpan_salt_mean          =   1.5928076668213E-05
(PID.TID 0000.0001) // =======================================================
(PID.TID 0000.0001) // End MONITOR dynamic field statistics
(PID.TID 0000.0001) // =======================================================
(PID.TID 0000.0001) // =======================================================
(PID.TID 0000.0001) // Begin OBCS MONITOR field statistics
(PID.TID 0000.0001) // =======================================================
(PID.TID 0000.0001) %MON obc_N_vVel_max               =   6.7637661582248E-01
(PID.TID 0000.0001) %MON obc_N_vVel_min               =  -6.9565214008410E-01
(PID.TID 0000.0001) %MON obc_N_vVel_mean              =  -7.1344780851604E-03
(PID.TID 0000.0001) %MON obc_N_vVel_sd                =   6.2813201479893E-02
(PID.TID 0000.0001) %MON obc_N_vVel_Int               =  -1.0213065638615E+08
(PID.TID 0000.0001) %MON obc_S_vVel_max               =   1.5967881880467E+00
(PID.TID 0000.0001) %MON obc_S_vVel_min               =  -2.5491641421056E-01
(PID.TID 0000.0001) %MON obc_S_vVel_mean              =  -3.3245057599917E-03
(PID.TID 0000.0001) %MON obc_S_vVel_sd                =   3.6964592404338E-02
(PID.TID 0000.0001) %MON obc_S_vVel_Int               =  -1.0120759531348E+08
(PID.TID 0000.0001) %MON obc_N_theta_max              =   1.6389627614545E+01
(PID.TID 0000.0001) %MON obc_N_theta_min              =   1.8895914139009E+00
(PID.TID 0000.0001) %MON obc_N_theta_mean             =   5.1588771237883E+00
(PID.TID 0000.0001) %MON obc_N_theta_sd               =   3.4826038600191E+00
(PID.TID 0000.0001) %MON obc_S_theta_max              =   2.5543502825894E+01
(PID.TID 0000.0001) %MON obc_S_theta_min              =   1.4633011889082E+00
(PID.TID 0000.0001) %MON obc_S_theta_mean             =   5.4595465098673E+00
(PID.TID 0000.0001) %MON obc_S_theta_sd               =   5.3558828399123E+00
(PID.TID 0000.0001) %MON obc_N_salt_max               =   3.5910861930873E+01
(PID.TID 0000.0001) %MON obc_N_salt_min               =   3.3295091106912E+01
(PID.TID 0000.0001) %MON obc_N_salt_mean              =   3.5114560172537E+01
(PID.TID 0000.0001) %MON obc_N_salt_sd                =   3.0984766008600E-01
(PID.TID 0000.0001) %MON obc_S_salt_max               =   3.7318250249244E+01
(PID.TID 0000.0001) %MON obc_S_salt_min               =   3.4844695044902E+01
(PID.TID 0000.0001) %MON obc_S_salt_mean              =   3.5168371932002E+01
(PID.TID 0000.0001) %MON obc_S_salt_sd                =   4.5716619306262E-01
(PID.TID 0000.0001) // =======================================================
(PID.TID 0000.0001) // End OBCS MONITOR field statistics
(PID.TID 0000.0001) // =======================================================
(PID.TID 0000.0001) // =======================================================
(PID.TID 0000.0001) // Begin MONITOR EXF statistics
(PID.TID 0000.0001) // =======================================================
(PID.TID 0000.0001) %MON exf_tsnumber                 =                    14
(PID.TID 0000.0001) %MON exf_time_sec                 =   3.3600000000000E+03
(PID.TID 0000.0001) %MON exf_ustress_max              =   9.1824255344797E-01
(PID.TID 0000.0001) %MON exf_ustress_min              =  -3.9413204577306E-01
(PID.TID 0000.0001) %MON exf_ustress_mean             =   6.4349321225382E-02
(PID.TID 0000.0001) %MON exf_ustress_sd               =   1.5623843986595E-01
(PID.TID 0000.0001) %MON exf_ustress_del2             =   4.5064087997224E-07
(PID.TID 0000.0001) %MON exf_vstress_max              =   4.1042121839602E-01
(PID.TID 0000.0001) %MON exf_vstress_min              =  -5.7010141617192E-01
(PID.TID 0000.0001) %MON exf_vstress_mean             =   1.1306959640651E-02
(PID.TID 0000.0001) %MON exf_vstress_sd               =   1.0276128813999E-01
(PID.TID 0000.0001) %MON exf_vstress_del2             =   3.5008605905601E-07
(PID.TID 0000.0001) %MON exf_hflux_max                =   1.2007038466235E+03
(PID.TID 0000.0001) %MON exf_hflux_min                =  -3.0199508851542E+02
(PID.TID 0000.0001) %MON exf_hflux_mean               =   2.3983079295646E+02
(PID.TID 0000.0001) %MON exf_hflux_sd                 =   1.4132915162007E+02
(PID.TID 0000.0001) %MON exf_hflux_del2               =   1.0938150744545E-01
(PID.TID 0000.0001) %MON exf_sflux_max                =   2.6127509655799E-07
(PID.TID 0000.0001) %MON exf_sflux_min                =  -1.8312691367245E-06
(PID.TID 0000.0001) %MON exf_sflux_mean               =   1.5943890936233E-08
(PID.TID 0000.0001) %MON exf_sflux_sd                 =   1.3331266785672E-07
(PID.TID 0000.0001) %MON exf_sflux_del2               =   5.2958526380045E-11
(PID.TID 0000.0001) %MON exf_uwind_max                =   2.0297617702746E+01
(PID.TID 0000.0001) %MON exf_uwind_min                =  -1.4754472676760E+01
(PID.TID 0000.0001) %MON exf_uwind_mean               =   2.4904859240688E+00
(PID.TID 0000.0001) %MON exf_uwind_sd                 =   6.6756165013172E+00
(PID.TID 0000.0001) %MON exf_uwind_del2               =   2.8435093545293E-03
(PID.TID 0000.0001) %MON exf_vwind_max                =   1.4756210076677E+01
(PID.TID 0000.0001) %MON exf_vwind_min                =  -1.2868193282968E+01
(PID.TID 0000.0001) %MON exf_vwind_mean               =   8.7602442169960E-01
(PID.TID 0000.0001) %MON exf_vwind_sd                 =   5.1940679563159E+00
(PID.TID 0000.0001) %MON exf_vwind_del2               =   2.0964831401731E-03
(PID.TID 0000.0001) %MON exf_wspeed_max               =   2.0405634445988E+01
(PID.TID 0000.0001) %MON exf_wspeed_min               =   1.8025415462920E-02
(PID.TID 0000.0001) %MON exf_wspeed_mean              =   7.7225214825808E+00
(PID.TID 0000.0001) %MON exf_wspeed_sd                =   4.3445136072940E+00
(PID.TID 0000.0001) %MON exf_wspeed_del2              =   3.5324659579856E-03
(PID.TID 0000.0001) %MON exf_atemp_max                =   2.9814706212742E+02
(PID.TID 0000.0001) %MON exf_atemp_min                =   2.7419334175467E+02
(PID.TID 0000.0001) %MON exf_atemp_mean               =   2.9065844990676E+02
(PID.TID 0000.0001) %MON exf_atemp_sd                 =   3.9488923540295E+00
(PID.TID 0000.0001) %MON exf_atemp_del2               =   6.8329438603542E-03
(PID.TID 0000.0001) %MON exf_aqh_max                  =   1.6724667321099E-02
(PID.TID 0000.0001) %MON exf_aqh_min                  =   2.7079371637848E-03
(PID.TID 0000.0001) %MON exf_aqh_mean                 =   9.4121383621464E-03
(PID.TID 0000.0001) %MON exf_aqh_sd                   =   2.8803678201485E-03
(PID.TID 0000.0001) %MON exf_aqh_del2                 =   3.7469751676613E-06
(PID.TID 0000.0001) %MON exf_lwflux_max               =   1.5448841360928E+02
(PID.TID 0000.0001) %MON exf_lwflux_min               =  -2.6010488606753E-01
(PID.TID 0000.0001) %MON exf_lwflux_mean              =   6.5312334805263E+01
(PID.TID 0000.0001) %MON exf_lwflux_sd                =   2.6487163090667E+01
(PID.TID 0000.0001) %MON exf_lwflux_del2              =   2.7044305743156E-02
(PID.TID 0000.0001) %MON exf_evap_max                 =   2.9161950282450E-07
(PID.TID 0000.0001) %MON exf_evap_min                 =  -1.0067575046966E-07
(PID.TID 0000.0001) %MON exf_evap_mean                =   5.9348625188791E-08
(PID.TID 0000.0001) %MON exf_evap_sd                  =   4.2216995192795E-08
(PID.TID 0000.0001) %MON exf_evap_del2                =   2.8654960485960E-11
(PID.TID 0000.0001) %MON exf_precip_max               =   2.0113592581988E-06
(PID.TID 0000.0001) %MON exf_precip_min               =   0.0000000000000E+00
(PID.TID 0000.0001) %MON exf_precip_mean              =   4.1816254847339E-08
(PID.TID 0000.0001) %MON exf_precip_sd                =   1.3924115911834E-07
(PID.TID 0000.0001) %MON exf_precip_del2              =   5.8140031239136E-11
(PID.TID 0000.0001) %MON exf_swflux_max               =   0.0000000000000E+00
(PID.TID 0000.0001) %MON exf_swflux_min               =   0.0000000000000E+00
(PID.TID 0000.0001) %MON exf_swflux_mean              =   0.0000000000000E+00
(PID.TID 0000.0001) %MON exf_swflux_sd                =   0.0000000000000E+00
(PID.TID 0000.0001) %MON exf_swflux_del2              =   0.0000000000000E+00
(PID.TID 0000.0001) %MON exf_swdown_max               =   0.0000000000000E+00
(PID.TID 0000.0001) %MON exf_swdown_min               =   0.0000000000000E+00
(PID.TID 0000.0001) %MON exf_swdown_mean              =   0.0000000000000E+00
(PID.TID 0000.0001) %MON exf_swdown_sd                =   0.0000000000000E+00
(PID.TID 0000.0001) %MON exf_swdown_del2              =   0.0000000000000E+00
(PID.TID 0000.0001) %MON exf_lwdown_max               =   4.1843716545593E+02
(PID.TID 0000.0001) %MON exf_lwdown_min               =   2.2422663445087E+02
(PID.TID 0000.0001) %MON exf_lwdown_mean              =   3.4970935287256E+02
(PID.TID 0000.0001) %MON exf_lwdown_sd                =   3.1487341464055E+01
(PID.TID 0000.0001) %MON exf_lwdown_del2              =   1.3544134476363E-01
(PID.TID 0000.0001) %MON exf_apressure_max            =   1.0281834697520E+05
(PID.TID 0000.0001) %MON exf_apressure_min            =   1.0001465908832E+05
(PID.TID 0000.0001) %MON exf_apressure_mean           =   1.0216996107213E+05
(PID.TID 0000.0001) %MON exf_apressure_sd             =   4.9898322972271E+02
(PID.TID 0000.0001) %MON exf_apressure_del2           =   3.9521561661577E+01
(PID.TID 0000.0001) %MON exf_runoff_max               =   4.4374791284855E-08
(PID.TID 0000.0001) %MON exf_runoff_min               =   0.0000000000000E+00
(PID.TID 0000.0001) %MON exf_runoff_mean              =   1.5884794052194E-09
(PID.TID 0000.0001) %MON exf_runoff_sd                =   5.3901957917178E-09
(PID.TID 0000.0001) %MON exf_runoff_del2              =   2.2191214937507E-12
(PID.TID 0000.0001) // =======================================================
(PID.TID 0000.0001) // End MONITOR EXF statistics
(PID.TID 0000.0001) // =======================================================
 cg2d: Sum(rhs),rhsMax =   6.75108917584261E+02  1.40188061822281E-01
(PID.TID 0000.0001)      cg2d_init_res =   1.47290583253125E+00
(PID.TID 0000.0001)      cg2d_iters(min,last) =      -1     310
(PID.TID 0000.0001)      cg2d_last_res =   6.88082972051282E-12
(PID.TID 0000.0001) // =======================================================
(PID.TID 0000.0001) // Begin MONITOR dynamic field statistics
(PID.TID 0000.0001) // =======================================================
(PID.TID 0000.0001) %MON time_tsnumber                =                    15
(PID.TID 0000.0001) %MON time_secondsf                =   3.6000000000000E+03
(PID.TID 0000.0001) %MON dynstat_eta_max              =   1.1219585794302E+00
(PID.TID 0000.0001) %MON dynstat_eta_min              =  -1.1448019242675E+00
(PID.TID 0000.0001) %MON dynstat_eta_mean             =  -2.2958497210269E-02
(PID.TID 0000.0001) %MON dynstat_eta_sd               =   2.3667689902627E-01
(PID.TID 0000.0001) %MON dynstat_eta_del2             =   2.3360591748871E-06
(PID.TID 0000.0001) %MON dynstat_uvel_max             =   1.2622880233394E+00
(PID.TID 0000.0001) %MON dynstat_uvel_min             =  -7.0215586428677E-01
(PID.TID 0000.0001) %MON dynstat_uvel_mean            =  -5.2284316414082E-04
(PID.TID 0000.0001) %MON dynstat_uvel_sd              =   5.2049292778392E-02
(PID.TID 0000.0001) %MON dynstat_uvel_del2            =   5.4657274360154E-07
(PID.TID 0000.0001) %MON dynstat_vvel_max             =   1.8715098714101E+00
(PID.TID 0000.0001) %MON dynstat_vvel_min             =  -9.1544546280380E-01
(PID.TID 0000.0001) %MON dynstat_vvel_mean            =  -1.1001628201617E-02
(PID.TID 0000.0001) %MON dynstat_vvel_sd              =   4.8523316192430E-02
(PID.TID 0000.0001) %MON dynstat_vvel_del2            =   5.0946274111272E-07
(PID.TID 0000.0001) %MON dynstat_wvel_max             =   3.9793623545325E-02
(PID.TID 0000.0001) %MON dynstat_wvel_min             =  -3.3090803674219E-02
(PID.TID 0000.0001) %MON dynstat_wvel_mean            =  -4.5674778727279E-07
(PID.TID 0000.0001) %MON dynstat_wvel_sd              =   6.1537106101041E-04
(PID.TID 0000.0001) %MON dynstat_wvel_del2            =   7.0335922545161E-08
(PID.TID 0000.0001) %MON dynstat_theta_max            =   2.6150282738856E+01
(PID.TID 0000.0001) %MON dynstat_theta_min            =   1.4688653652005E+00
(PID.TID 0000.0001) %MON dynstat_theta_mean           =   5.5098204996225E+00
(PID.TID 0000.0001) %MON dynstat_theta_sd             =   4.7732601190490E+00
(PID.TID 0000.0001) %MON dynstat_theta_del2           =   4.0105583274623E-06
(PID.TID 0000.0001) %MON dynstat_salt_max             =   3.9138982479709E+01
(PID.TID 0000.0001) %MON dynstat_salt_min             =   3.3102350921869E+01
(PID.TID 0000.0001) %MON dynstat_salt_mean            =   3.5173368559030E+01
(PID.TID 0000.0001) %MON dynstat_salt_sd              =   3.7891959057913E-01
(PID.TID 0000.0001) %MON dynstat_salt_del2            =   5.3338452486653E-07
(PID.TID 0000.0001) %MON forcing_qnet_max             =   1.2192702496754E+03
(PID.TID 0000.0001) %MON forcing_qnet_min             =  -3.0698758679751E+02
(PID.TID 0000.0001) %MON forcing_qnet_mean            =   2.4187254088113E+02
(PID.TID 0000.0001) %MON forcing_qnet_sd              =   1.4294543438404E+02
(PID.TID 0000.0001) %MON forcing_qnet_del2            =   1.6956555164496E-03
(PID.TID 0000.0001) %MON forcing_qsw_max              =   0.0000000000000E+00
(PID.TID 0000.0001) %MON forcing_qsw_min              =   0.0000000000000E+00
(PID.TID 0000.0001) %MON forcing_qsw_mean             =   0.0000000000000E+00
(PID.TID 0000.0001) %MON forcing_qsw_sd               =   0.0000000000000E+00
(PID.TID 0000.0001) %MON forcing_qsw_del2             =   0.0000000000000E+00
(PID.TID 0000.0001) %MON forcing_empmr_max            =   2.6127509655799E-04
(PID.TID 0000.0001) %MON forcing_empmr_min            =  -1.8312691367245E-03
(PID.TID 0000.0001) %MON forcing_empmr_mean           =   1.5943890936233E-05
(PID.TID 0000.0001) %MON forcing_empmr_sd             =   1.3331266785672E-04
(PID.TID 0000.0001) %MON forcing_empmr_del2           =   2.6149070601509E-09
(PID.TID 0000.0001) %MON forcing_fu_max               =   9.1802462549131E-01
(PID.TID 0000.0001) %MON forcing_fu_min               =  -3.9412469485510E-01
(PID.TID 0000.0001) %MON forcing_fu_mean              =   6.4411825858242E-02
(PID.TID 0000.0001) %MON forcing_fu_sd                =   1.5629923762401E-01
(PID.TID 0000.0001) %MON forcing_fu_del2              =   4.1232870965246E-07
(PID.TID 0000.0001) %MON forcing_fv_max               =   4.1023636632684E-01
(PID.TID 0000.0001) %MON forcing_fv_min               =  -5.7504441539248E-01
(PID.TID 0000.0001) %MON forcing_fv_mean              =   1.1291046875893E-02
(PID.TID 0000.0001) %MON forcing_fv_sd                =   1.0289339161879E-01
(PID.TID 0000.0001) %MON forcing_fv_del2              =   3.2696475343654E-07
(PID.TID 0000.0001) %MON trAdv_CFL_u_max              =   7.6583977366252E-02
(PID.TID 0000.0001) %MON trAdv_CFL_v_max              =   1.1867883826514E-01
(PID.TID 0000.0001) %MON trAdv_CFL_w_max              =   5.3225025427816E-01
(PID.TID 0000.0001) %MON advcfl_uvel_max              =   7.6583976323492E-02
(PID.TID 0000.0001) %MON advcfl_vvel_max              =   1.1871035564443E-01
(PID.TID 0000.0001) %MON advcfl_wvel_max              =   5.2892039804567E-01
(PID.TID 0000.0001) %MON advcfl_W_hf_max              =   5.3788515055491E-01
(PID.TID 0000.0001) %MON pe_b_mean                    =  -4.9157230114498E-04
(PID.TID 0000.0001) %MON ke_max                       =   1.7535798459449E+00
(PID.TID 0000.0001) %MON ke_mean                      =   2.5734571610059E-03
(PID.TID 0000.0001) %MON ke_vol                       =   4.5818637279721E+16
(PID.TID 0000.0001) %MON vort_r_min                   =  -5.6666900354031E-04
(PID.TID 0000.0001) %MON vort_r_max                   =   5.6729821569197E-04
(PID.TID 0000.0001) %MON vort_a_mean                  =   8.2147614076689E-05
(PID.TID 0000.0001) %MON vort_a_sd                    =   1.0157341616758E-05
(PID.TID 0000.0001) %MON vort_p_mean                  =   8.4848835089489E-05
(PID.TID 0000.0001) %MON vort_p_sd                    =   3.5032702666668E-05
(PID.TID 0000.0001) %MON surfExpan_theta_mean         =   1.8346716048127E-04
(PID.TID 0000.0001) %MON surfExpan_salt_mean          =   5.6043823280271E-05
(PID.TID 0000.0001) // =======================================================
(PID.TID 0000.0001) // End MONITOR dynamic field statistics
(PID.TID 0000.0001) // =======================================================
(PID.TID 0000.0001) // =======================================================
(PID.TID 0000.0001) // Begin OBCS MONITOR field statistics
(PID.TID 0000.0001) // =======================================================
(PID.TID 0000.0001) %MON obc_N_vVel_max               =   6.7629043341471E-01
(PID.TID 0000.0001) %MON obc_N_vVel_min               =  -6.9123005747769E-01
(PID.TID 0000.0001) %MON obc_N_vVel_mean              =  -7.1756568170385E-03
(PID.TID 0000.0001) %MON obc_N_vVel_sd                =   6.2800191092703E-02
(PID.TID 0000.0001) %MON obc_N_vVel_Int               =  -1.0272013341105E+08
(PID.TID 0000.0001) %MON obc_S_vVel_max               =   1.5974060757993E+00
(PID.TID 0000.0001) %MON obc_S_vVel_min               =  -2.5481743791163E-01
(PID.TID 0000.0001) %MON obc_S_vVel_mean              =  -2.9359635497352E-03
(PID.TID 0000.0001) %MON obc_S_vVel_sd                =   3.6958496959631E-02
(PID.TID 0000.0001) %MON obc_S_vVel_Int               =  -8.9379243787945E+07
(PID.TID 0000.0001) %MON obc_N_theta_max              =   1.6389539512358E+01
(PID.TID 0000.0001) %MON obc_N_theta_min              =   1.8895914629663E+00
(PID.TID 0000.0001) %MON obc_N_theta_mean             =   5.1588697396382E+00
(PID.TID 0000.0001) %MON obc_N_theta_sd               =   3.4825945703428E+00
(PID.TID 0000.0001) %MON obc_S_theta_max              =   2.5543400077115E+01
(PID.TID 0000.0001) %MON obc_S_theta_min              =   1.4633015851955E+00
(PID.TID 0000.0001) %MON obc_S_theta_mean             =   5.4595457048427E+00
(PID.TID 0000.0001) %MON obc_S_theta_sd               =   5.3558789690521E+00
(PID.TID 0000.0001) %MON obc_N_salt_max               =   3.5910861522510E+01
(PID.TID 0000.0001) %MON obc_N_salt_min               =   3.3295096609545E+01
(PID.TID 0000.0001) %MON obc_N_salt_mean              =   3.5114559876550E+01
(PID.TID 0000.0001) %MON obc_N_salt_sd                =   3.0984754111561E-01
(PID.TID 0000.0001) %MON obc_S_salt_max               =   3.7318243364860E+01
(PID.TID 0000.0001) %MON obc_S_salt_min               =   3.4844695097122E+01
(PID.TID 0000.0001) %MON obc_S_salt_mean              =   3.5168371860085E+01
(PID.TID 0000.0001) %MON obc_S_salt_sd                =   4.5716584207385E-01
(PID.TID 0000.0001) // =======================================================
(PID.TID 0000.0001) // End OBCS MONITOR field statistics
(PID.TID 0000.0001) // =======================================================
 Computing Diagnostic #     23  ETAN         Counter:      15   Parms: SM      M1      
 Computing Diagnostic #     80  oceTAUX      Counter:      15   Parms: UU      U1      
           Vector  Mate for  oceTAUX      Diagnostic #     81  oceTAUY  exists 
 Computing Diagnostic #     81  oceTAUY      Counter:      15   Parms: VV      U1      
           Vector  Mate for  oceTAUY      Diagnostic #     80  oceTAUX  exists 
 Computing Diagnostic #    185  EXFuwind     Counter:      15   Parms: UM      U1      
 Computing Diagnostic #    186  EXFvwind     Counter:      15   Parms: VM      U1      
 Computing Diagnostic #     26  THETA        Counter:      15   Parms: SMR     MR      
 Computing Diagnostic #     27  SALT         Counter:      15   Parms: SMR     MR      
 Computing Diagnostic #     30  UVEL         Counter:      15   Parms: UUR     MR      
           Vector  Mate for  UVEL         Diagnostic #     31  VVEL     exists 
 Computing Diagnostic #     31  VVEL         Counter:      15   Parms: VVR     MR      
           Vector  Mate for  VVEL         Diagnostic #     30  UVEL     exists 
 Computing Diagnostic #     32  WVEL         Counter:      15   Parms: WM      LR      
 Computing Diagnostic #     36  UVELSQ       Counter:      15   Parms: UURP    MR      
           Vector  Mate for  UVELSQ       Diagnostic #     37  VVELSQ   exists 
 Computing Diagnostic #     37  VVELSQ       Counter:      15   Parms: VVRP    MR      
           Vector  Mate for  VVELSQ       Diagnostic #     36  UVELSQ   exists 
 Computing Diagnostic #     52  WTHMASS      Counter:      15   Parms: WM      LR      
 Computing Diagnostic #     55  WSLTMASS     Counter:      15   Parms: WM      LR      
(PID.TID 0000.0001) %CHECKPOINT        15 ckptA
(PID.TID 0000.0001)   Seconds in section "ALL                    [THE_MODEL_MAIN]":
(PID.TID 0000.0001)           User time:   58.9904906749725
(PID.TID 0000.0001)         System time:  0.000000000000000E+000
(PID.TID 0000.0001)     Wall clock time:   77.7565240859985
(PID.TID 0000.0001)          No. starts:           1
(PID.TID 0000.0001)           No. stops:           1
(PID.TID 0000.0001)   Seconds in section "INITIALISE_FIXED       [THE_MODEL_MAIN]":
(PID.TID 0000.0001)           User time:   27.6534531116486
(PID.TID 0000.0001)         System time:  0.000000000000000E+000
(PID.TID 0000.0001)     Wall clock time:   38.1604959964752
(PID.TID 0000.0001)          No. starts:           1
(PID.TID 0000.0001)           No. stops:           1
(PID.TID 0000.0001)   Seconds in section "THE_MAIN_LOOP          [THE_MODEL_MAIN]":
(PID.TID 0000.0001)           User time:   31.3370113372803
(PID.TID 0000.0001)         System time:  0.000000000000000E+000
(PID.TID 0000.0001)     Wall clock time:   39.5960030555725
(PID.TID 0000.0001)          No. starts:           1
(PID.TID 0000.0001)           No. stops:           1
(PID.TID 0000.0001)   Seconds in section "INITIALISE_VARIA    [THE_MAIN_LOOP]":
(PID.TID 0000.0001)           User time:   2.76035499572754
(PID.TID 0000.0001)         System time:  0.000000000000000E+000
(PID.TID 0000.0001)     Wall clock time:   5.12616300582886
(PID.TID 0000.0001)          No. starts:           1
(PID.TID 0000.0001)           No. stops:           1
(PID.TID 0000.0001)   Seconds in section "MAIN LOOP           [THE_MAIN_LOOP]":
(PID.TID 0000.0001)           User time:   28.5766353607178
(PID.TID 0000.0001)         System time:  0.000000000000000E+000
(PID.TID 0000.0001)     Wall clock time:   34.4698190689087
(PID.TID 0000.0001)          No. starts:           1
(PID.TID 0000.0001)           No. stops:           1
(PID.TID 0000.0001)   Seconds in section "MAIN_DO_LOOP        [THE_MAIN_LOOP]":
(PID.TID 0000.0001)           User time:   28.5765419006348
(PID.TID 0000.0001)         System time:  0.000000000000000E+000
(PID.TID 0000.0001)     Wall clock time:   34.4697179794312
(PID.TID 0000.0001)          No. starts:          15
(PID.TID 0000.0001)           No. stops:          15
(PID.TID 0000.0001)   Seconds in section "FORWARD_STEP        [MAIN_DO_LOOP]":
(PID.TID 0000.0001)           User time:   28.5763549804688
(PID.TID 0000.0001)         System time:  0.000000000000000E+000
(PID.TID 0000.0001)     Wall clock time:   34.4695384502411
(PID.TID 0000.0001)          No. starts:          15
(PID.TID 0000.0001)           No. stops:          15
(PID.TID 0000.0001)   Seconds in section "DO_STATEVARS_DIAGS  [FORWARD_STEP]":
(PID.TID 0000.0001)           User time:  0.813039779663086
(PID.TID 0000.0001)         System time:  0.000000000000000E+000
(PID.TID 0000.0001)     Wall clock time:  0.821817636489868
(PID.TID 0000.0001)          No. starts:          45
(PID.TID 0000.0001)           No. stops:          45
(PID.TID 0000.0001)   Seconds in section "LOAD_FIELDS_DRIVER  [FORWARD_STEP]":
(PID.TID 0000.0001)           User time:  0.259273529052734
(PID.TID 0000.0001)         System time:  0.000000000000000E+000
(PID.TID 0000.0001)     Wall clock time:  0.846093416213989
(PID.TID 0000.0001)          No. starts:          15
(PID.TID 0000.0001)           No. stops:          15
(PID.TID 0000.0001)   Seconds in section "EXF_GETFORCING     [LOAD_FLDS_DRIVER]":
(PID.TID 0000.0001)           User time:  0.258846282958984
(PID.TID 0000.0001)         System time:  0.000000000000000E+000
(PID.TID 0000.0001)     Wall clock time:  0.845676898956299
(PID.TID 0000.0001)          No. starts:          15
(PID.TID 0000.0001)           No. stops:          15
(PID.TID 0000.0001)   Seconds in section "EXTERNAL_FLDS_LOAD [LOAD_FLDS_DRIVER]":
(PID.TID 0000.0001)           User time:  1.144409179687500E-004
(PID.TID 0000.0001)         System time:  0.000000000000000E+000
(PID.TID 0000.0001)     Wall clock time:  1.227855682373047E-004
(PID.TID 0000.0001)          No. starts:          15
(PID.TID 0000.0001)           No. stops:          15
(PID.TID 0000.0001)   Seconds in section "DO_ATMOSPHERIC_PHYS [FORWARD_STEP]":
(PID.TID 0000.0001)           User time:  9.727478027343750E-005
(PID.TID 0000.0001)         System time:  0.000000000000000E+000
(PID.TID 0000.0001)     Wall clock time:  1.027584075927734E-004
(PID.TID 0000.0001)          No. starts:          15
(PID.TID 0000.0001)           No. stops:          15
(PID.TID 0000.0001)   Seconds in section "DO_OCEANIC_PHYS     [FORWARD_STEP]":
(PID.TID 0000.0001)           User time:   4.30517387390137
(PID.TID 0000.0001)         System time:  0.000000000000000E+000
(PID.TID 0000.0001)     Wall clock time:   4.35332536697388
(PID.TID 0000.0001)          No. starts:          15
(PID.TID 0000.0001)           No. stops:          15
(PID.TID 0000.0001)   Seconds in section "KPP_CALC [DO_OCEANIC_PHYS]":
(PID.TID 0000.0001)           User time:   3.65160751342773
(PID.TID 0000.0001)         System time:  0.000000000000000E+000
(PID.TID 0000.0001)     Wall clock time:   3.67515611648560
(PID.TID 0000.0001)          No. starts:         150
(PID.TID 0000.0001)           No. stops:         150
(PID.TID 0000.0001)   Seconds in section "DYNAMICS            [FORWARD_STEP]":
(PID.TID 0000.0001)           User time:   4.50955963134766
(PID.TID 0000.0001)         System time:  0.000000000000000E+000
(PID.TID 0000.0001)     Wall clock time:   4.55766487121582
(PID.TID 0000.0001)          No. starts:          15
(PID.TID 0000.0001)           No. stops:          15
(PID.TID 0000.0001)   Seconds in section "UPDATE_SURF_DR      [FORWARD_STEP]":
(PID.TID 0000.0001)           User time:  0.103816986083984
(PID.TID 0000.0001)         System time:  0.000000000000000E+000
(PID.TID 0000.0001)     Wall clock time:  0.104140758514404
(PID.TID 0000.0001)          No. starts:          15
(PID.TID 0000.0001)           No. stops:          15
(PID.TID 0000.0001)   Seconds in section "SOLVE_FOR_PRESSURE  [FORWARD_STEP]":
(PID.TID 0000.0001)           User time:   1.58360671997070
(PID.TID 0000.0001)         System time:  0.000000000000000E+000
(PID.TID 0000.0001)     Wall clock time:   1.60653972625732
(PID.TID 0000.0001)          No. starts:          15
(PID.TID 0000.0001)           No. stops:          15
(PID.TID 0000.0001)   Seconds in section "MOM_CORRECTION_STEP [FORWARD_STEP]":
(PID.TID 0000.0001)           User time:  0.251770019531250
(PID.TID 0000.0001)         System time:  0.000000000000000E+000
(PID.TID 0000.0001)     Wall clock time:  0.252709865570068
(PID.TID 0000.0001)          No. starts:          15
(PID.TID 0000.0001)           No. stops:          15
(PID.TID 0000.0001)   Seconds in section "INTEGR_CONTINUITY   [FORWARD_STEP]":
(PID.TID 0000.0001)           User time:  0.272994995117188
(PID.TID 0000.0001)         System time:  0.000000000000000E+000
(PID.TID 0000.0001)     Wall clock time:  0.274813890457153
(PID.TID 0000.0001)          No. starts:          15
(PID.TID 0000.0001)           No. stops:          15
(PID.TID 0000.0001)   Seconds in section "BLOCKING_EXCHANGES  [FORWARD_STEP]":
(PID.TID 0000.0001)           User time:   1.47252655029297
(PID.TID 0000.0001)         System time:  0.000000000000000E+000
(PID.TID 0000.0001)     Wall clock time:   1.55713009834290
(PID.TID 0000.0001)          No. starts:          30
(PID.TID 0000.0001)           No. stops:          30
(PID.TID 0000.0001)   Seconds in section "THERMODYNAMICS      [FORWARD_STEP]":
(PID.TID 0000.0001)           User time:   5.69660186767578
(PID.TID 0000.0001)         System time:  0.000000000000000E+000
(PID.TID 0000.0001)     Wall clock time:   5.74643540382385
(PID.TID 0000.0001)          No. starts:          15
(PID.TID 0000.0001)           No. stops:          15
(PID.TID 0000.0001)   Seconds in section "TRC_CORRECTION_STEP [FORWARD_STEP]":
(PID.TID 0000.0001)           User time:  7.629394531250000E-005
(PID.TID 0000.0001)         System time:  0.000000000000000E+000
(PID.TID 0000.0001)     Wall clock time:  9.059906005859375E-005
(PID.TID 0000.0001)          No. starts:          15
(PID.TID 0000.0001)           No. stops:          15
(PID.TID 0000.0001)   Seconds in section "MONITOR             [FORWARD_STEP]":
(PID.TID 0000.0001)           User time:   1.32250213623047
(PID.TID 0000.0001)         System time:  0.000000000000000E+000
(PID.TID 0000.0001)     Wall clock time:   1.33938503265381
(PID.TID 0000.0001)          No. starts:          15
(PID.TID 0000.0001)           No. stops:          15
(PID.TID 0000.0001)   Seconds in section "DO_THE_MODEL_IO     [FORWARD_STEP]":
(PID.TID 0000.0001)           User time:   4.07025909423828
(PID.TID 0000.0001)         System time:  0.000000000000000E+000
(PID.TID 0000.0001)     Wall clock time:   6.49067091941833
(PID.TID 0000.0001)          No. starts:          15
(PID.TID 0000.0001)           No. stops:          15
(PID.TID 0000.0001)   Seconds in section "DO_WRITE_PICKUP     [FORWARD_STEP]":
(PID.TID 0000.0001)           User time:   3.91250991821289
(PID.TID 0000.0001)         System time:  0.000000000000000E+000
(PID.TID 0000.0001)     Wall clock time:   6.51001787185669
(PID.TID 0000.0001)          No. starts:          15
(PID.TID 0000.0001)           No. stops:          15
(PID.TID 0000.0001) // ======================================================
(PID.TID 0000.0001) // Tile <-> Tile communication statistics
(PID.TID 0000.0001) // ======================================================
(PID.TID 0000.0001) // o Tile number: 000001
(PID.TID 0000.0001) //         No. X exchanges =              0
(PID.TID 0000.0001) //            Max. X spins =              0
(PID.TID 0000.0001) //            Min. X spins =     1000000000
(PID.TID 0000.0001) //          Total. X spins =              0
(PID.TID 0000.0001) //            Avg. X spins =       0.00E+00
(PID.TID 0000.0001) //         No. Y exchanges =              0
(PID.TID 0000.0001) //            Max. Y spins =              0
(PID.TID 0000.0001) //            Min. Y spins =     1000000000
(PID.TID 0000.0001) //          Total. Y spins =              0
(PID.TID 0000.0001) //            Avg. Y spins =       0.00E+00
(PID.TID 0000.0001) // o Tile number: 000002
(PID.TID 0000.0001) //         No. X exchanges =              0
(PID.TID 0000.0001) //            Max. X spins =              0
(PID.TID 0000.0001) //            Min. X spins =     1000000000
(PID.TID 0000.0001) //          Total. X spins =              0
(PID.TID 0000.0001) //            Avg. X spins =       0.00E+00
(PID.TID 0000.0001) //         No. Y exchanges =              0
(PID.TID 0000.0001) //            Max. Y spins =              0
(PID.TID 0000.0001) //            Min. Y spins =     1000000000
(PID.TID 0000.0001) //          Total. Y spins =              0
(PID.TID 0000.0001) //            Avg. Y spins =       0.00E+00
(PID.TID 0000.0001) // o Tile number: 000003
(PID.TID 0000.0001) //         No. X exchanges =              0
(PID.TID 0000.0001) //            Max. X spins =              0
(PID.TID 0000.0001) //            Min. X spins =     1000000000
(PID.TID 0000.0001) //          Total. X spins =              0
(PID.TID 0000.0001) //            Avg. X spins =       0.00E+00
(PID.TID 0000.0001) //         No. Y exchanges =              0
(PID.TID 0000.0001) //            Max. Y spins =              0
(PID.TID 0000.0001) //            Min. Y spins =     1000000000
(PID.TID 0000.0001) //          Total. Y spins =              0
(PID.TID 0000.0001) //            Avg. Y spins =       0.00E+00
(PID.TID 0000.0001) // o Tile number: 000004
(PID.TID 0000.0001) //         No. X exchanges =              0
(PID.TID 0000.0001) //            Max. X spins =              0
(PID.TID 0000.0001) //            Min. X spins =     1000000000
(PID.TID 0000.0001) //          Total. X spins =              0
(PID.TID 0000.0001) //            Avg. X spins =       0.00E+00
(PID.TID 0000.0001) //         No. Y exchanges =              0
(PID.TID 0000.0001) //            Max. Y spins =              0
(PID.TID 0000.0001) //            Min. Y spins =     1000000000
(PID.TID 0000.0001) //          Total. Y spins =              0
(PID.TID 0000.0001) //            Avg. Y spins =       0.00E+00
(PID.TID 0000.0001) // o Tile number: 000005
(PID.TID 0000.0001) //         No. X exchanges =              0
(PID.TID 0000.0001) //            Max. X spins =              0
(PID.TID 0000.0001) //            Min. X spins =     1000000000
(PID.TID 0000.0001) //          Total. X spins =              0
(PID.TID 0000.0001) //            Avg. X spins =       0.00E+00
(PID.TID 0000.0001) //         No. Y exchanges =              0
(PID.TID 0000.0001) //            Max. Y spins =              0
(PID.TID 0000.0001) //            Min. Y spins =     1000000000
(PID.TID 0000.0001) //          Total. Y spins =              0
(PID.TID 0000.0001) //            Avg. Y spins =       0.00E+00
(PID.TID 0000.0001) // o Tile number: 000006
(PID.TID 0000.0001) //         No. X exchanges =              0
(PID.TID 0000.0001) //            Max. X spins =              0
(PID.TID 0000.0001) //            Min. X spins =     1000000000
(PID.TID 0000.0001) //          Total. X spins =              0
(PID.TID 0000.0001) //            Avg. X spins =       0.00E+00
(PID.TID 0000.0001) //         No. Y exchanges =              0
(PID.TID 0000.0001) //            Max. Y spins =              0
(PID.TID 0000.0001) //            Min. Y spins =     1000000000
(PID.TID 0000.0001) //          Total. Y spins =              0
(PID.TID 0000.0001) //            Avg. Y spins =       0.00E+00
(PID.TID 0000.0001) // o Tile number: 000007
(PID.TID 0000.0001) //         No. X exchanges =              0
(PID.TID 0000.0001) //            Max. X spins =              0
(PID.TID 0000.0001) //            Min. X spins =     1000000000
(PID.TID 0000.0001) //          Total. X spins =              0
(PID.TID 0000.0001) //            Avg. X spins =       0.00E+00
(PID.TID 0000.0001) //         No. Y exchanges =              0
(PID.TID 0000.0001) //            Max. Y spins =              0
(PID.TID 0000.0001) //            Min. Y spins =     1000000000
(PID.TID 0000.0001) //          Total. Y spins =              0
(PID.TID 0000.0001) //            Avg. Y spins =       0.00E+00
(PID.TID 0000.0001) // o Tile number: 000008
(PID.TID 0000.0001) //         No. X exchanges =              0
(PID.TID 0000.0001) //            Max. X spins =              0
(PID.TID 0000.0001) //            Min. X spins =     1000000000
(PID.TID 0000.0001) //          Total. X spins =              0
(PID.TID 0000.0001) //            Avg. X spins =       0.00E+00
(PID.TID 0000.0001) //         No. Y exchanges =              0
(PID.TID 0000.0001) //            Max. Y spins =              0
(PID.TID 0000.0001) //            Min. Y spins =     1000000000
(PID.TID 0000.0001) //          Total. Y spins =              0
(PID.TID 0000.0001) //            Avg. Y spins =       0.00E+00
(PID.TID 0000.0001) // o Tile number: 000009
(PID.TID 0000.0001) //         No. X exchanges =              0
(PID.TID 0000.0001) //            Max. X spins =              0
(PID.TID 0000.0001) //            Min. X spins =     1000000000
(PID.TID 0000.0001) //          Total. X spins =              0
(PID.TID 0000.0001) //            Avg. X spins =       0.00E+00
(PID.TID 0000.0001) //         No. Y exchanges =              0
(PID.TID 0000.0001) //            Max. Y spins =              0
(PID.TID 0000.0001) //            Min. Y spins =     1000000000
(PID.TID 0000.0001) //          Total. Y spins =              0
(PID.TID 0000.0001) //            Avg. Y spins =       0.00E+00
(PID.TID 0000.0001) // o Tile number: 000010
(PID.TID 0000.0001) //         No. X exchanges =              0
(PID.TID 0000.0001) //            Max. X spins =              0
(PID.TID 0000.0001) //            Min. X spins =     1000000000
(PID.TID 0000.0001) //          Total. X spins =              0
(PID.TID 0000.0001) //            Avg. X spins =       0.00E+00
(PID.TID 0000.0001) //         No. Y exchanges =              0
(PID.TID 0000.0001) //            Max. Y spins =              0
(PID.TID 0000.0001) //            Min. Y spins =     1000000000
(PID.TID 0000.0001) //          Total. Y spins =              0
(PID.TID 0000.0001) //            Avg. Y spins =       0.00E+00
(PID.TID 0000.0001) // o Thread number: 000001
(PID.TID 0000.0001) //            No. barriers =          71710
(PID.TID 0000.0001) //      Max. barrier spins =              1
(PID.TID 0000.0001) //      Min. barrier spins =              1
(PID.TID 0000.0001) //     Total barrier spins =          71710
(PID.TID 0000.0001) //      Avg. barrier spins =       1.00E+00
PROGRAM MAIN: Execution ended Normally
