(PID.TID 0000.0001) 
(PID.TID 0000.0001) // ======================================================
(PID.TID 0000.0001) //                      MITgcm UV
(PID.TID 0000.0001) //                      =========
(PID.TID 0000.0001) // ======================================================
(PID.TID 0000.0001) // execution environment starting up...
(PID.TID 0000.0001) 
(PID.TID 0000.0001) // MITgcmUV version:  checkpoint67g
(PID.TID 0000.0001) // Build user:        anirban
(PID.TID 0000.0001) // Build host:        login2
(PID.TID 0000.0001) // Build date:        Sat Mar  2 14:32:33 PST 2019
(PID.TID 0000.0001) 
(PID.TID 0000.0001) // =======================================================
(PID.TID 0000.0001) // Execution Environment parameter file "eedata"
(PID.TID 0000.0001) // =======================================================
(PID.TID 0000.0001) ># Example "eedata" file
(PID.TID 0000.0001) ># Lines beginning "#" are comments
(PID.TID 0000.0001) ># nTx - No. threads per process in X
(PID.TID 0000.0001) ># nTy - No. threads per process in Y
(PID.TID 0000.0001) > &EEPARMS
(PID.TID 0000.0001) > nTx=1,
(PID.TID 0000.0001) > nTy=1,
(PID.TID 0000.0001) ># debugMode=.TRUE.,
(PID.TID 0000.0001) > /
(PID.TID 0000.0001) ># Note: Some systems use & as the
(PID.TID 0000.0001) ># namelist terminator. Other systems
(PID.TID 0000.0001) ># use a / character (as shown here).
(PID.TID 0000.0001) 
(PID.TID 0000.0001) // =======================================================
(PID.TID 0000.0001) // Computational Grid Specification ( see files "SIZE.h" )
(PID.TID 0000.0001) //                                  ( and "eedata"       )
(PID.TID 0000.0001) // =======================================================
(PID.TID 0000.0001)      nPx =   97 ; /* No. processes in X */
(PID.TID 0000.0001)      nPy =    1 ; /* No. processes in Y */
(PID.TID 0000.0001)      nSx =   10 ; /* No. tiles in X per process */
(PID.TID 0000.0001)      nSy =    1 ; /* No. tiles in Y per process */
(PID.TID 0000.0001)      sNx =   33 ; /* Tile size in X */
(PID.TID 0000.0001)      sNy =   28 ; /* Tile size in Y */
(PID.TID 0000.0001)      OLx =    4 ; /* Tile overlap distance in X */
(PID.TID 0000.0001)      OLy =    4 ; /* Tile overlap distance in Y */
(PID.TID 0000.0001)      nTx =    1 ; /* No. threads in X per process */
(PID.TID 0000.0001)      nTy =    1 ; /* No. threads in Y per process */
(PID.TID 0000.0001)       Nr =  100 ; /* No. levels in the vertical   */
(PID.TID 0000.0001)       Nx =32010 ; /* Total domain size in X ( = nPx*nSx*sNx ) */
(PID.TID 0000.0001)       Ny =   28 ; /* Total domain size in Y ( = nPy*nSy*sNy ) */
(PID.TID 0000.0001)   nTiles =   10 ; /* Total no. tiles per process ( = nSx*nSy ) */
(PID.TID 0000.0001)   nProcs =   97 ; /* Total no. processes ( = nPx*nPy ) */
(PID.TID 0000.0001) nThreads =    1 ; /* Total no. threads per process ( = nTx*nTy ) */
(PID.TID 0000.0001) usingMPI =    T ; /* Flag used to control whether MPI is in use */
(PID.TID 0000.0001)                   /*  note: To execute a program with MPI calls */
(PID.TID 0000.0001)                   /*  it must be launched appropriately e.g     */
(PID.TID 0000.0001)                   /*  "mpirun -np 64 ......"                    */
(PID.TID 0000.0001) useCoupler=    F ;/* Flag used to control communications with   */
(PID.TID 0000.0001)                   /*  other model components, through a coupler */
(PID.TID 0000.0001) useNest2W_parent =    F ;/* Control 2-W Nesting comm */
(PID.TID 0000.0001) useNest2W_child  =    F ;/* Control 2-W Nesting comm */
(PID.TID 0000.0001) debugMode =    F ; /* print debug msg. (sequence of S/R calls)  */
(PID.TID 0000.0001) printMapIncludesZeros=    F ; /* print zeros in Std.Output maps */
(PID.TID 0000.0001) maxLengthPrt1D=   65 /* maxLength of 1D array printed to StdOut */
(PID.TID 0000.0001) 
(PID.TID 0000.0001) ======= Starting MPI parallel Run =========
(PID.TID 0000.0001)  My Processor Name (len:  9 ) = hpc-25-07
(PID.TID 0000.0001)  Located at (  0,  0) on processor grid (0: 96,0:  0)
(PID.TID 0000.0001)  Origin at  (     1,     1) on global grid (1: 32010,1:    28)
(PID.TID 0000.0001)  North neighbor = processor 0000
(PID.TID 0000.0001)  South neighbor = processor 0000
(PID.TID 0000.0001)   East neighbor = processor 0001
(PID.TID 0000.0001)   West neighbor = processor 0096
(PID.TID 0000.0001) // ======================================================
(PID.TID 0000.0001) // Mapping of tiles to threads
(PID.TID 0000.0001) // ======================================================
(PID.TID 0000.0001) // -o- Thread   1, tiles (   1:  10,   1:   1)
(PID.TID 0000.0001) 
(PID.TID 0000.0001) W2_READPARMS: opening data.exch2
(PID.TID 0000.0001)  OPEN_COPY_DATA_FILE: opening file data.exch2
(PID.TID 0000.0001) // =======================================================
(PID.TID 0000.0001) // Parameter file "data.exch2"
(PID.TID 0000.0001) // =======================================================
(PID.TID 0000.0001) ># EXCH2 Package: Wrapper-2 User Choice
(PID.TID 0000.0001) >#--------------------
(PID.TID 0000.0001) >#  preDefTopol   :: pre-defined Topology selector:
(PID.TID 0000.0001) >#                :: = 0 : topology defined from processing "data.exch2";
(PID.TID 0000.0001) >#                :: = 1 : simple, single facet topology;
(PID.TID 0000.0001) >#                :: = 2 : customized topology (w2_set_myown_facets)
(PID.TID 0000.0001) >#                :: = 3 : 6-facet Cube (3 face-dims: nRed, nGreen, nBlue).
(PID.TID 0000.0001) >#  dimsFacets    :: facet pair of dimensions (n1x,n1y, n2x,n2y ...)
(PID.TID 0000.0001) >#  facetEdgeLink :: Face-Edge connectivity map:
(PID.TID 0000.0001) >#    facetEdgeLink(i,j)=XX.1 : face(j)-edge(i) (i=1,2,3,4 <==> N,S,E,W)
(PID.TID 0000.0001) >#    is connected to Northern edge of face "XX" ; similarly,
(PID.TID 0000.0001) >#    = XX.2 : to Southern.E, XX.3 = Eastern.E, XX.4 = Western.E of face "XX"
(PID.TID 0000.0001) >#  blankList     :: List of "blank" tiles
(PID.TID 0000.0001) >#  W2_mapIO      :: global map IO selector (-1 = old type ; 0 = 1 long line in X
(PID.TID 0000.0001) >#                :: 1 = compact, mostly in Y dir)
(PID.TID 0000.0001) >#  W2_printMsg   :: option for information messages printing
(PID.TID 0000.0001) >#                :: <0 : write to log file ; =0 : minimum print ;
(PID.TID 0000.0001) >#                :: =1 : no duplicated print ; =2 : all processes do print
(PID.TID 0000.0001) >#--------------------
(PID.TID 0000.0001) > &W2_EXCH2_PARM01
(PID.TID 0000.0001) >  W2_printMsg= 0,
(PID.TID 0000.0001) >  W2_mapIO   = 1,
(PID.TID 0000.0001) >#
(PID.TID 0000.0001) >#-- 5 facets llc_270 topology (drop facet 6 and its connection):
(PID.TID 0000.0001) >  preDefTopol = 1,
(PID.TID 0000.0001) >  dimsFacets = 1815, 532,
(PID.TID 0000.0001) >  blankList =
(PID.TID 0000.0001) >   386,
(PID.TID 0000.0001) >   441,
(PID.TID 0000.0001) >   496,
(PID.TID 0000.0001) >   551,
(PID.TID 0000.0001) >   606,
(PID.TID 0000.0001) >   661,
(PID.TID 0000.0001) >   716,
(PID.TID 0000.0001) >   771,
(PID.TID 0000.0001) >   826,
(PID.TID 0000.0001) >   881,
(PID.TID 0000.0001) >   936,
(PID.TID 0000.0001) >   991,
(PID.TID 0000.0001) >   442,
(PID.TID 0000.0001) >   497,
(PID.TID 0000.0001) >   552,
(PID.TID 0000.0001) >   607,
(PID.TID 0000.0001) >   662,
(PID.TID 0000.0001) >   717,
(PID.TID 0000.0001) >   772,
(PID.TID 0000.0001) >   827,
(PID.TID 0000.0001) >   882,
(PID.TID 0000.0001) >   937,
(PID.TID 0000.0001) >   992,
(PID.TID 0000.0001) >   498,
(PID.TID 0000.0001) >   553,
(PID.TID 0000.0001) >   608,
(PID.TID 0000.0001) >   663,
(PID.TID 0000.0001) >   718,
(PID.TID 0000.0001) >   773,
(PID.TID 0000.0001) >   828,
(PID.TID 0000.0001) >   883,
(PID.TID 0000.0001) >   938,
(PID.TID 0000.0001) >   993,
(PID.TID 0000.0001) >   554,
(PID.TID 0000.0001) >   774,
(PID.TID 0000.0001) >   829,
(PID.TID 0000.0001) >   884,
(PID.TID 0000.0001) >   939,
(PID.TID 0000.0001) >   994,
(PID.TID 0000.0001) >   830,
(PID.TID 0000.0001) >   885,
(PID.TID 0000.0001) >   940,
(PID.TID 0000.0001) >   995,
(PID.TID 0000.0001) >   941,
(PID.TID 0000.0001) >   996,
(PID.TID 0000.0001) >   942,
(PID.TID 0000.0001) >   997,
(PID.TID 0000.0001) >    51,
(PID.TID 0000.0001) >    52,
(PID.TID 0000.0001) >    53,
(PID.TID 0000.0001) >   108,
(PID.TID 0000.0001) >    54,
(PID.TID 0000.0001) >   109,
(PID.TID 0000.0001) >   164,
(PID.TID 0000.0001) >   219,
(PID.TID 0000.0001) >   274,
(PID.TID 0000.0001) >   329,
(PID.TID 0000.0001) >   714,
(PID.TID 0000.0001) >   769,
(PID.TID 0000.0001) >   824,
(PID.TID 0000.0001) >   989,
(PID.TID 0000.0001) >    55,
(PID.TID 0000.0001) >   110,
(PID.TID 0000.0001) >   165,
(PID.TID 0000.0001) >   220,
(PID.TID 0000.0001) >   275,
(PID.TID 0000.0001) >   330,
(PID.TID 0000.0001) >   385,
(PID.TID 0000.0001) >   715,
(PID.TID 0000.0001) >   770,
(PID.TID 0000.0001) >   825,
(PID.TID 0000.0001) >   880,
(PID.TID 0000.0001) >   935,
(PID.TID 0000.0001) >   990,
(PID.TID 0000.0001) >  1045,
(PID.TID 0000.0001) > &
(PID.TID 0000.0001) 
(PID.TID 0000.0001) W2_READPARMS: finished reading data.exch2
(PID.TID 0000.0001) W2_useE2ioLayOut=    T ;/* T: use Exch2 glob IO map; F: use model default */
(PID.TID 0000.0001) W2_mapIO        =   1 ; /* select option for Exch2 global-IO map */
(PID.TID 0000.0001) W2_printMsg     =   0 ; /* select option for printing information */
(PID.TID 0000.0001) ===== Start setting W2 TOPOLOGY:
(PID.TID 0000.0001) W2_E2SETUP: number of Active Tiles =     970
(PID.TID 0000.0001) W2_E2SETUP: number of Blank Tiles  =      75
(PID.TID 0000.0001) W2_E2SETUP: Total number of Tiles  =    1045
(PID.TID 0000.0001) W2_SET_SINGLE_FACET: preDefTopol=  1 selected
(PID.TID 0000.0001) W2_E2SETUP: Total number of Facets =       1
(PID.TID 0000.0001) W2_SET_F2F_INDEX: index matrix for connected Facet-Edges:
(PID.TID 0000.0001) W2_SET_MAP_TILES: tile mapping within facet and global Map:
(PID.TID 0000.0001)  W2_mapIO = 1815 (=   55*sNx)
(PID.TID 0000.0001)  Global Map (IO): X-size=    1815 , Y-size=     532
(PID.TID 0000.0001) W2_SET_MAP_TILES: tile offset within facet and global Map:
- facet  1 : X-size=  1815 , Y-size=   532 ; 1045 tiles (Tx,Ty=  55,  19)
(PID.TID 0000.0001) W2_SET_MAP_CUMSUM: setting Facet Matrix for CUMUL-SUM
 Facet Matrix for CUMUL-SUM (nFacets=   1, nActive=   1 ):
- facet  1 :  0  0 ,
(PID.TID 0000.0001) W2_SET_MAP_CUMSUM: done (skip Tile Matrix setting)
(PID.TID 0000.0001) W2_SET_TILE2TILES: tile neighbours and index connection:
(PID.TID 0000.0001) current Max.Nb.Neighbours (e.g., on tile    8 ) =  4
(PID.TID 0000.0001) ===== W2 TILE TOPOLOGY =====
(PID.TID 0000.0001)  TILE:     1 (bi,bj=   1   1 ), Nb of Neighbours =  2
(PID.TID 0000.0001)     NEIGHBOUR  1 = TILE   56 (n=  2) Comm = MSG (PROC=    6)
(PID.TID 0000.0001)     NEIGHBOUR  2 = TILE    2 (n=  3) Comm = PUT (PROC=    1)
(PID.TID 0000.0001)  TILE:     2 (bi,bj=   2   1 ), Nb of Neighbours =  3
(PID.TID 0000.0001)     NEIGHBOUR  1 = TILE   57 (n=  2) Comm = MSG (PROC=    6)
(PID.TID 0000.0001)     NEIGHBOUR  2 = TILE    3 (n=  3) Comm = PUT (PROC=    1)
(PID.TID 0000.0001)     NEIGHBOUR  3 = TILE    1 (n=  2) Comm = PUT (PROC=    1)
(PID.TID 0000.0001)  TILE:     3 (bi,bj=   3   1 ), Nb of Neighbours =  3
(PID.TID 0000.0001)     NEIGHBOUR  1 = TILE   58 (n=  2) Comm = MSG (PROC=    6)
(PID.TID 0000.0001)     NEIGHBOUR  2 = TILE    4 (n=  3) Comm = PUT (PROC=    1)
(PID.TID 0000.0001)     NEIGHBOUR  3 = TILE    2 (n=  2) Comm = PUT (PROC=    1)
(PID.TID 0000.0001)  TILE:     4 (bi,bj=   4   1 ), Nb of Neighbours =  3
(PID.TID 0000.0001)     NEIGHBOUR  1 = TILE   59 (n=  2) Comm = MSG (PROC=    6)
(PID.TID 0000.0001)     NEIGHBOUR  2 = TILE    5 (n=  3) Comm = PUT (PROC=    1)
(PID.TID 0000.0001)     NEIGHBOUR  3 = TILE    3 (n=  2) Comm = PUT (PROC=    1)
(PID.TID 0000.0001)  TILE:     5 (bi,bj=   5   1 ), Nb of Neighbours =  3
(PID.TID 0000.0001)     NEIGHBOUR  1 = TILE   60 (n=  2) Comm = MSG (PROC=    6)
(PID.TID 0000.0001)     NEIGHBOUR  2 = TILE    6 (n=  3) Comm = PUT (PROC=    1)
(PID.TID 0000.0001)     NEIGHBOUR  3 = TILE    4 (n=  2) Comm = PUT (PROC=    1)
(PID.TID 0000.0001)  TILE:     6 (bi,bj=   6   1 ), Nb of Neighbours =  3
(PID.TID 0000.0001)     NEIGHBOUR  1 = TILE   61 (n=  2) Comm = MSG (PROC=    6)
(PID.TID 0000.0001)     NEIGHBOUR  2 = TILE    7 (n=  3) Comm = PUT (PROC=    1)
(PID.TID 0000.0001)     NEIGHBOUR  3 = TILE    5 (n=  2) Comm = PUT (PROC=    1)
(PID.TID 0000.0001)  TILE:     7 (bi,bj=   7   1 ), Nb of Neighbours =  3
(PID.TID 0000.0001)     NEIGHBOUR  1 = TILE   62 (n=  2) Comm = MSG (PROC=    6)
(PID.TID 0000.0001)     NEIGHBOUR  2 = TILE    8 (n=  4) Comm = PUT (PROC=    1)
(PID.TID 0000.0001)     NEIGHBOUR  3 = TILE    6 (n=  2) Comm = PUT (PROC=    1)
(PID.TID 0000.0001)  TILE:     8 (bi,bj=   8   1 ), Nb of Neighbours =  4
(PID.TID 0000.0001)     NEIGHBOUR  1 = TILE   63 (n=  2) Comm = MSG (PROC=    6)
(PID.TID 0000.0001)     NEIGHBOUR  2 = TILE  998 (n=  1) Comm = MSG (PROC=   93)
(PID.TID 0000.0001)     NEIGHBOUR  3 = TILE    9 (n=  4) Comm = PUT (PROC=    1)
(PID.TID 0000.0001)     NEIGHBOUR  4 = TILE    7 (n=  2) Comm = PUT (PROC=    1)
(PID.TID 0000.0001)  TILE:     9 (bi,bj=   9   1 ), Nb of Neighbours =  4
(PID.TID 0000.0001)     NEIGHBOUR  1 = TILE   64 (n=  2) Comm = MSG (PROC=    6)
(PID.TID 0000.0001)     NEIGHBOUR  2 = TILE  999 (n=  1) Comm = MSG (PROC=   93)
(PID.TID 0000.0001)     NEIGHBOUR  3 = TILE   10 (n=  4) Comm = PUT (PROC=    1)
(PID.TID 0000.0001)     NEIGHBOUR  4 = TILE    8 (n=  3) Comm = PUT (PROC=    1)
(PID.TID 0000.0001)  TILE:    10 (bi,bj=  10   1 ), Nb of Neighbours =  4
(PID.TID 0000.0001)     NEIGHBOUR  1 = TILE   65 (n=  2) Comm = MSG (PROC=    6)
(PID.TID 0000.0001)     NEIGHBOUR  2 = TILE 1000 (n=  1) Comm = MSG (PROC=   93)
(PID.TID 0000.0001)     NEIGHBOUR  3 = TILE   11 (n=  4) Comm = MSG (PROC=    2)
(PID.TID 0000.0001)     NEIGHBOUR  4 = TILE    9 (n=  3) Comm = PUT (PROC=    1)
(PID.TID 0000.0001) =====       setting W2 TOPOLOGY: Done
(PID.TID 0000.0001) 
(PID.TID 0000.0001)  INI_PARMS: opening model parameter file "data"
(PID.TID 0000.0001)  OPEN_COPY_DATA_FILE: opening file data
(PID.TID 0000.0001) // =======================================================
(PID.TID 0000.0001) // Parameter file "data"
(PID.TID 0000.0001) // =======================================================
(PID.TID 0000.0001) >### Data file with primary model parameters -----------------------------------
(PID.TID 0000.0001) >#
(PID.TID 0000.0001) >### Continuous equation parameters --------------------------------------------
(PID.TID 0000.0001) > &PARM01
(PID.TID 0000.0001) >## Reference temperatures and salinities for every vertical level.
(PID.TID 0000.0001) > tRef =  18.89, 18.89, 18.89, 18.89, 18.89, 18.87, 18.85, 18.82,
(PID.TID 0000.0001) >         18.80, 18.73, 18.63, 18.49, 18.28, 18.08, 17.86, 17.63,
(PID.TID 0000.0001) >         17.40, 17.18, 16.95, 16.73, 16.52, 16.31, 16.10, 15.89,
(PID.TID 0000.0001) >         15.69, 15.49, 15.28, 15.08, 14.88, 14.67, 14.47, 14.25,
(PID.TID 0000.0001) >         14.03, 13.80, 13.55, 13.29, 13.01, 12.73, 12.42, 12.11,
(PID.TID 0000.0001) >         11.78, 11.43, 11.07, 10.70, 10.31,  9.93,  9.53,  9.11,
(PID.TID 0000.0001) >          8.71,  8.29,  7.89,  7.51,  7.13,  6.78,  6.44,  6.11,
(PID.TID 0000.0001) >          5.81,  5.51,  5.23,  4.97,  4.73,  4.51,  4.30,  4.11,
(PID.TID 0000.0001) >          3.94,  3.78,  3.63,  3.50,  3.38,  3.25,  3.14,  3.04,
(PID.TID 0000.0001) >          2.94,  2.83,  2.74,  2.64,  2.54,  2.45,  2.36,  2.27,
(PID.TID 0000.0001) >          2.19,  2.10,  2.03,  1.95,  1.86,  1.78,  1.70,  1.63,
(PID.TID 0000.0001) >          1.55,  1.48,  1.41,  1.34,  1.27,  1.20,  1.13,  1.06,
(PID.TID 0000.0001) >          1.00,  0.96,  0.93,  0.91,
(PID.TID 0000.0001) > sRef =  34.84, 34.84, 34.84, 34.84, 34.84, 34.84, 34.85, 34.85,
(PID.TID 0000.0001) >         34.85, 34.86, 34.87, 34.88, 34.90, 34.91, 34.93, 34.95,
(PID.TID 0000.0001) >         34.96, 34.98, 34.99, 35.00, 35.01, 35.02, 35.03, 35.04,
(PID.TID 0000.0001) >         35.05, 35.06, 35.07, 35.07, 35.07, 35.07, 35.07, 35.07,
(PID.TID 0000.0001) >         35.07, 35.06, 35.05, 35.04, 35.03, 35.02, 35.01, 34.99,
(PID.TID 0000.0001) >         34.97, 34.95, 34.92, 34.90, 34.87, 34.84, 34.81, 34.78,
(PID.TID 0000.0001) >         34.75, 34.72, 34.69, 34.67, 34.65, 34.62, 34.61, 34.60,
(PID.TID 0000.0001) >         34.59, 34.59, 34.58, 34.59, 34.59, 34.60, 34.60, 34.61,
(PID.TID 0000.0001) >         34.62, 34.63, 34.64, 34.65, 34.66, 34.67, 34.67, 34.68,
(PID.TID 0000.0001) >         34.69, 34.70, 34.71, 34.71, 34.72, 34.72, 34.73, 34.73,
(PID.TID 0000.0001) >         34.73, 34.74, 34.74, 34.74, 34.74, 34.75, 34.74, 34.74,
(PID.TID 0000.0001) >         34.74, 34.74, 34.74, 34.74, 34.74, 34.74, 34.73, 34.73,
(PID.TID 0000.0001) >         34.73, 34.73, 34.73, 34.73,
(PID.TID 0000.0001) > rhonil        = 1029.,
(PID.TID 0000.0001) > rhoConstFresh = 1000.,
(PID.TID 0000.0001) > eosType = 'JMD95Z',
(PID.TID 0000.0001) >#
(PID.TID 0000.0001) >## Various prescriptions for viscosity and diffusivity.
(PID.TID 0000.0001) > viscAr     = 5.e-04,
(PID.TID 0000.0001) > viscA4Grid = 0.0,
(PID.TID 0000.0001) > diffKhT    = 0.E0,
(PID.TID 0000.0001) > diffKhS    = 0.E0,
(PID.TID 0000.0001) > diffK4T    = 0.E10,
(PID.TID 0000.0001) > diffK4S    = 0.E10,
(PID.TID 0000.0001) > diffKrT    = 1.0e-5,
(PID.TID 0000.0001) > diffKrS    = 1.0e-5,
(PID.TID 0000.0001) > bottomDragQuadratic = 0.002,
(PID.TID 0000.0001) > no_slip_sides     = .TRUE.,
(PID.TID 0000.0001) > no_slip_bottom    = .TRUE.,
(PID.TID 0000.0001) > implicitDiffusion = .TRUE.,
(PID.TID 0000.0001) > implicitViscosity = .TRUE.,
(PID.TID 0000.0001) ># horizontal momentum closure
(PID.TID 0000.0001) > viscC4Leith   = 2.0,
(PID.TID 0000.0001) > viscC4Leithd  = 2.0,
(PID.TID 0000.0001) > viscA4GridMax = 0.8,
(PID.TID 0000.0001) >#
(PID.TID 0000.0001) >## Parameters that control numerical methods like advection schemes and
(PID.TID 0000.0001) >#  treatment of the free-surface.
(PID.TID 0000.0001) > tempAdvScheme = 7,
(PID.TID 0000.0001) > saltAdvScheme = 7,
(PID.TID 0000.0001) > implicitFreeSurface     = .TRUE.,
(PID.TID 0000.0001) > staggerTimeStep         = .TRUE.,
(PID.TID 0000.0001) > exactConserv            = .TRUE.,
(PID.TID 0000.0001) > vectorInvariantMomentum = .TRUE.,
(PID.TID 0000.0001) > useAreaViscLength       = .TRUE.,
(PID.TID 0000.0001) > highOrderVorticity      = .TRUE.,
(PID.TID 0000.0001) > multiDimAdvection       = .TRUE.,
(PID.TID 0000.0001) >#
(PID.TID 0000.0001) >## These parameters seem to be associated with the external forcing.
(PID.TID 0000.0001) > convertFW2Salt = -1.,
(PID.TID 0000.0001) > temp_EvPrRn    =  0.,
(PID.TID 0000.0001) > useRealFreshWaterFlux = .FALSE.,
(PID.TID 0000.0001) > allowFreezing         = .FALSE.,
(PID.TID 0000.0001) >#
(PID.TID 0000.0001) >## Parameters associated with bathymetry specification.
(PID.TID 0000.0001) > hFacMin   = 0.2,
(PID.TID 0000.0001) > hFacMinDr = 5.,
(PID.TID 0000.0001) >#
(PID.TID 0000.0001) >## Parameters for reading, writing, and misc numerical details.
(PID.TID 0000.0001) > globalFiles     = .TRUE.,
(PID.TID 0000.0001) > useSingleCpuIO  = .TRUE.,
(PID.TID 0000.0001) > readBinaryPrec  = 32,
(PID.TID 0000.0001) > writeBinaryPrec = 32,
(PID.TID 0000.0001) > debuglevel      = 2,
(PID.TID 0000.0001) >#
(PID.TID 0000.0001) >## Unused parameters.
(PID.TID 0000.0001) ># gravity = 9.81,
(PID.TID 0000.0001) ># viscA4Grid = 2.0E-3,
(PID.TID 0000.0001) ># viscAhGrid = 2.5E-4,
(PID.TID 0000.0001) ># bottomDraglinear    = 1.E-3,
(PID.TID 0000.0001) ># Note: nonlinFreeSurf=1 with rStar=0 breaks the code.
(PID.TID 0000.0001) ># nonlinFreeSurf = 4,
(PID.TID 0000.0001) ># select_rStar   = 1,
(PID.TID 0000.0001) ># hFacInf   = 0.1,
(PID.TID 0000.0001) ># hFacSup   = 5.,
(PID.TID 0000.0001) ># implicSurfPress = 0.6,
(PID.TID 0000.0001) ># implicDiv2DFlow = 0.6,
(PID.TID 0000.0001) ># useSingleCpuInput = .TRUE.,
(PID.TID 0000.0001) ># set to eccov4, make sure minbathy=20m first
(PID.TID 0000.0001) ># debuglevel = -1,
(PID.TID 0000.0001) ># useJamartWetPoints = .TRUE.,
(PID.TID 0000.0001) ># writeBinaryPrec=64,
(PID.TID 0000.0001) > /
(PID.TID 0000.0001) >### Elliptic solver parameters ------------------------------------------------
(PID.TID 0000.0001) > &PARM02
(PID.TID 0000.0001) > cg2dMaxIters       = 1000,
(PID.TID 0000.0001) ># cg2dTargetResidual = 1.E-8,
(PID.TID 0000.0001) > cg2dTargetResWunit = 1e-18,
(PID.TID 0000.0001) >#
(PID.TID 0000.0001) >#cg2dMaxIters       = 100,
(PID.TID 0000.0001) >#cg2dTargetResidual = 1.E-5,
(PID.TID 0000.0001) > &
(PID.TID 0000.0001) >### Time stepping parameters --------------------------------------------------
(PID.TID 0000.0001) > &PARM03
(PID.TID 0000.0001) > deltaT      =    240.,
(PID.TID 0000.0001) > nIter0      =  0,
(PID.TID 0000.0001) > nTimeSteps  =  15,
(PID.TID 0000.0001) > pChkptFreq  = 864000.,
(PID.TID 0000.0001) > monitorFreq =   240.,
(PID.TID 0000.0001) > abEps       = 0.1,
(PID.TID 0000.0001) >## It is unclear what these specify.
(PID.TID 0000.0001) > pickupStrictlyMatch = .FALSE.,
(PID.TID 0000.0001) > forcing_In_AB       = .FALSE.,
(PID.TID 0000.0001) > momDissip_In_AB     = .FALSE.,
(PID.TID 0000.0001) > dumpInitAndLast     = .FALSE.,
(PID.TID 0000.0001) > /
(PID.TID 0000.0001) >### Gridding parameters -------------------------------------------------------
(PID.TID 0000.0001) > &PARM04
(PID.TID 0000.0001) > usingSphericalPolarGrid=.TRUE.,
(PID.TID 0000.0001) >## Specify the height of each vertical level.
(PID.TID 0000.0001) > delR =   5.00,   5.00,   5.00,   5.00,   5.00,   5.00,   5.00,   5.00,   5.00,
(PID.TID 0000.0001) >          5.00,   5.00,   5.00,   5.00,   5.00,   5.00,   5.01,   5.01,   5.02,
(PID.TID 0000.0001) >          5.04,   5.07,   5.12,   5.20,   5.31,   5.49,   5.72,   6.04,   6.45,
(PID.TID 0000.0001) >          6.97,   7.62,   8.42,   9.36,  10.46,  11.72,  13.13,  14.70,  16.40,
(PID.TID 0000.0001) >         18.24,  20.18,  22.21,  24.29,  26.43,  28.57,  30.71,  32.79,  34.82,
(PID.TID 0000.0001) >         36.76,  38.60,  40.30,  41.87,  43.28,  44.54,  45.64,  46.58,  47.38,
(PID.TID 0000.0001) >         48.03,  48.55,  48.96,  49.29,  49.53,  49.72,  49.90,  50.11,  50.41,
(PID.TID 0000.0001) >         50.92,  51.69,  52.87,  54.54,  56.79,  59.67,  63.16,  67.26,  71.83,
(PID.TID 0000.0001) >         76.83,  82.11,  87.61,  93.22,  98.91, 104.64, 110.38, 116.12, 121.87,
(PID.TID 0000.0001) >        127.63, 133.38, 139.12, 144.87, 150.63, 156.38, 162.12, 167.87, 173.63,
(PID.TID 0000.0001) >        179.38, 185.12, 190.87, 196.63, 202.38, 208.12, 213.87, 219.63, 225.38,
(PID.TID 0000.0001) >        231.12,
(PID.TID 0000.0001) > xgOrigin=-81.583335876464844,
(PID.TID 0000.0001) > dxSpacing=0.041666666666667,
(PID.TID 0000.0001) > ygOrigin=26.855293273925781,
(PID.TID 0000.0001) > delYFile = 'delYFile',
(PID.TID 0000.0001) > /
(PID.TID 0000.0001) ># -----------------------------------------------------------------------------
(PID.TID 0000.0001) >### Bathymetry files and initial condition files
(PID.TID 0000.0001) > &PARM05
(PID.TID 0000.0001) > bathyFile       = 'bathy.bin',
(PID.TID 0000.0001) > hydrogThetaFile = 'T0_1815x532x100.bin',
(PID.TID 0000.0001) > hydrogSaltFile  = 'S0_1815x532x100.bin',
(PID.TID 0000.0001) > uVelInitFile    = 'U0_1815x532x100.bin',
(PID.TID 0000.0001) > vVelInitFile    = 'V0_1815x532x100.bin',
(PID.TID 0000.0001) > /
(PID.TID 0000.0001) 
(PID.TID 0000.0001)  INI_PARMS ; starts to read PARM01
(PID.TID 0000.0001)  INI_PARMS ; read PARM01 : OK
(PID.TID 0000.0001)  INI_PARMS ; starts to read PARM02
(PID.TID 0000.0001)  INI_PARMS ; read PARM02 : OK
(PID.TID 0000.0001)  INI_PARMS ; starts to read PARM03
(PID.TID 0000.0001)  INI_PARMS ; read PARM03 : OK
(PID.TID 0000.0001)  INI_PARMS ; starts to read PARM04
(PID.TID 0000.0001)  INI_PARMS ; read PARM04 : OK
(PID.TID 0000.0001)  INI_PARMS ; starts to read PARM05
(PID.TID 0000.0001)  INI_PARMS ; read PARM05 : OK
(PID.TID 0000.0001)  INI_PARMS: finished reading file "data"
(PID.TID 0000.0001)  PACKAGES_BOOT: opening data.pkg
(PID.TID 0000.0001)  OPEN_COPY_DATA_FILE: opening file data.pkg
(PID.TID 0000.0001) // =======================================================
(PID.TID 0000.0001) // Parameter file "data.pkg"
(PID.TID 0000.0001) // =======================================================
(PID.TID 0000.0001) ># Packages
(PID.TID 0000.0001) > &PACKAGES
(PID.TID 0000.0001) > useCAL         = .TRUE.,
(PID.TID 0000.0001) > useEXF         = .TRUE.,
(PID.TID 0000.0001) > useKPP         = .TRUE.,
(PID.TID 0000.0001) > useDiagnostics = .TRUE.,
(PID.TID 0000.0001) > useOBCS        = .TRUE.,
(PID.TID 0000.0001) ># useProfiles=.TRUE.,
(PID.TID 0000.0001) > /
(PID.TID 0000.0001) 
(PID.TID 0000.0001)  PACKAGES_BOOT: finished reading data.pkg
(PID.TID 0000.0001)  PACKAGES_BOOT: On/Off package Summary
 --------  pkgs with a standard "usePKG" On/Off switch in "data.pkg":  --------
 pkg/obcs                 compiled   and   used ( useOBCS                  = T )
 pkg/kpp                  compiled   and   used ( useKPP                   = T )
 pkg/cal                  compiled   and   used ( useCAL                   = T )
 pkg/exf                  compiled   and   used ( useEXF                   = T )
 pkg/diagnostics          compiled   and   used ( useDiagnostics           = T )
 -------- pkgs without standard "usePKG" On/Off switch in "data.pkg":  --------
 pkg/generic_advdiff      compiled   and   used ( useGAD                   = T )
 pkg/mom_common           compiled   and   used ( momStepping              = T )
 pkg/mom_vecinv           compiled   and   used ( +vectorInvariantMomentum = T )
 pkg/monitor              compiled   and   used ( monitorFreq > 0.         = T )
 pkg/debug                compiled but not used ( debugMode                = F )
 pkg/exch2                compiled   and   used
 pkg/rw                   compiled   and   used
 pkg/mdsio                compiled   and   used
(PID.TID 0000.0001)  PACKAGES_BOOT: End of package Summary
(PID.TID 0000.0001) 
(PID.TID 0000.0001) CAL_READPARMS: opening data.cal
(PID.TID 0000.0001)  OPEN_COPY_DATA_FILE: opening file data.cal
(PID.TID 0000.0001) // =======================================================
(PID.TID 0000.0001) // Parameter file "data.cal"
(PID.TID 0000.0001) // =======================================================
(PID.TID 0000.0001) >#
(PID.TID 0000.0001) ># *******************
(PID.TID 0000.0001) ># Calendar Parameters
(PID.TID 0000.0001) ># *******************
(PID.TID 0000.0001) > &CAL_NML
(PID.TID 0000.0001) > TheCalendar='gregorian',
(PID.TID 0000.0001) > startDate_1=20080101,
(PID.TID 0000.0001) > startDate_2=000000,
(PID.TID 0000.0001) > calendarDumps = .TRUE.,
(PID.TID 0000.0001) > &
(PID.TID 0000.0001) 
(PID.TID 0000.0001) CAL_READPARMS: finished reading data.cal
(PID.TID 0000.0001) EXF_READPARMS: opening data.exf
(PID.TID 0000.0001)  OPEN_COPY_DATA_FILE: opening file data.exf
(PID.TID 0000.0001) // =======================================================
(PID.TID 0000.0001) // Parameter file "data.exf"
(PID.TID 0000.0001) // =======================================================
(PID.TID 0000.0001) ># *********************
(PID.TID 0000.0001) ># External Forcing Data
(PID.TID 0000.0001) ># *********************
(PID.TID 0000.0001) >#
(PID.TID 0000.0001) > &EXF_NML_01
(PID.TID 0000.0001) >#
(PID.TID 0000.0001) > useAtmWind        = .TRUE.,
(PID.TID 0000.0001) >#
(PID.TID 0000.0001) >#TO COMBINE WITH ALLOW_ZENITH_ANGLE:
(PID.TID 0000.0001) > exf_albedo        = 0.1,
(PID.TID 0000.0001) > useExfZenIncoming = .TRUE.,
(PID.TID 0000.0001) > select_ZenAlbedo  = 1,
(PID.TID 0000.0001) >#
(PID.TID 0000.0001) > ocean_emissivity  = 0.97,
(PID.TID 0000.0001) > ice_emissivity    = 0.95,
(PID.TID 0000.0001) > snow_emissivity   = 0.95,
(PID.TID 0000.0001) > exf_iprec         = 32,
(PID.TID 0000.0001) > exf_iprec_obcs    = 32,
(PID.TID 0000.0001) > exf_yftype        = 'RL',
(PID.TID 0000.0001) > useExfYearlyFields= .TRUE.,
(PID.TID 0000.0001) > useExfCheckRange  = .FALSE.,
(PID.TID 0000.0001) > useRelativeWind   = .TRUE.,
(PID.TID 0000.0001) > &
(PID.TID 0000.0001) >#
(PID.TID 0000.0001) > &EXF_NML_02
(PID.TID 0000.0001) > apressurefile     = 'era_forcing/ERA5_pres',
(PID.TID 0000.0001) > atempfile         = 'era_forcing/ERA5_tmp2m_degC',
(PID.TID 0000.0001) > aqhfile           = 'era_forcing/ERA5_spfh2m',
(PID.TID 0000.0001) > precipfile        = 'era_forcing/ERA5_rain',
(PID.TID 0000.0001) > uwindfile         = 'era_forcing/ERA5_u10m',
(PID.TID 0000.0001) > vwindfile         = 'era_forcing/ERA5_v10m',
(PID.TID 0000.0001) > swdownfile        = 'era_forcing/ERA5_dsw',
(PID.TID 0000.0001) > lwdownfile        = 'era_forcing/ERA5_dlw',
(PID.TID 0000.0001) > tidePotfile       = 'tide_IAU_EARTH',
(PID.TID 0000.0001) > runofffile        = 'runoff1p2472-360x180x12.bin',
(PID.TID 0000.0001) >#
(PID.TID 0000.0001) > apressurestartdate1 = 19920101,
(PID.TID 0000.0001) > apressurestartdate2 = 000000,
(PID.TID 0000.0001) > apressureperiod   = 3600.0,
(PID.TID 0000.0001) >#
(PID.TID 0000.0001) > atempstartdate1   = 19920101,
(PID.TID 0000.0001) > atempstartdate2   = 000000,
(PID.TID 0000.0001) > atempperiod       = 3600.0,
(PID.TID 0000.0001) >#
(PID.TID 0000.0001) > aqhstartdate1     = 19920101,
(PID.TID 0000.0001) > aqhstartdate2     = 000000,
(PID.TID 0000.0001) > aqhperiod         = 3600.0,
(PID.TID 0000.0001) >#
(PID.TID 0000.0001) > precipstartdate1  = 19920101,
(PID.TID 0000.0001) > precipstartdate2  = 003000,
(PID.TID 0000.0001) > precipperiod      = 3600.0,
(PID.TID 0000.0001) >#
(PID.TID 0000.0001) > uwindstartdate1   = 19920101,
(PID.TID 0000.0001) > uwindstartdate2   = 000000,
(PID.TID 0000.0001) > uwindperiod       = 3600.0,
(PID.TID 0000.0001) >#
(PID.TID 0000.0001) > vwindstartdate1   = 19920101,
(PID.TID 0000.0001) > vwindstartdate2   = 000000,
(PID.TID 0000.0001) > vwindperiod       = 3600.0,
(PID.TID 0000.0001) >#
(PID.TID 0000.0001) > swdownstartdate1  = 19920101,
(PID.TID 0000.0001) > swdownstartdate2  = 003000,
(PID.TID 0000.0001) > swdownperiod      = 3600.0,
(PID.TID 0000.0001) >#
(PID.TID 0000.0001) > lwdownstartdate1  = 19920101,
(PID.TID 0000.0001) > lwdownstartdate2  = 003000,
(PID.TID 0000.0001) > lwdownperiod      = 3600.0,
(PID.TID 0000.0001) > tidePotstartdate1  = 19790101,
(PID.TID 0000.0001) > tidePotstartdate2  = 000000,
(PID.TID 0000.0001) > tidePotperiod      = 3600.0,
(PID.TID 0000.0001) ># "*period=-12" specifies monthly-mean forcing
(PID.TID 0000.0001) > runoffperiod      = -12,
(PID.TID 0000.0001) > &
(PID.TID 0000.0001) >#
(PID.TID 0000.0001) > &EXF_NML_03
(PID.TID 0000.0001) > exf_offset_atemp   = 273.15,
(PID.TID 0000.0001) > exf_inscal_swdown  = -1.0,
(PID.TID 0000.0001) > exf_inscal_lwdown  = -1.0,
(PID.TID 0000.0001) ># 1/365/24/3600 yr/s conversion, runoff [m/yr --> m/s]
(PID.TID 0000.0001) > exf_inscal_runoff = 3.1710e-08,
(PID.TID 0000.0001) > &
(PID.TID 0000.0001) >#
(PID.TID 0000.0001) > &EXF_NML_04
(PID.TID 0000.0001) ># runoff_interpMethod = 0,
(PID.TID 0000.0001) >#
(PID.TID 0000.0001) > apressure_lon0    =   0.0000000D0,
(PID.TID 0000.0001) > apressure_lon_inc =   0.2812500D0,
(PID.TID 0000.0001) > apressure_lat0    = -89.7848850D0,
(PID.TID 0000.0001) > apressure_lat_inc = 0.2786766D0,0.2803199D0,0.2806917D0,0.2808328D0,0.2809011D0,0.2809392D0,0.2809626D0,0.2809781D0,
(PID.TID 0000.0001) >                     0.2809888D0,0.2809965D0,0.2810023D0,0.2810067D0,0.2810102D0,0.2810129D0,0.2810151D0,
(PID.TID 0000.0001) >                     33*0.2810258D0,543*0.2810302D0,33*0.2810258D0,
(PID.TID 0000.0001) >                     0.2810151D0,0.2810129D0,0.2810102D0,0.2810067D0,0.2810023D0,0.2809965D0,0.2809888D0,0.2809781D0,
(PID.TID 0000.0001) >                     0.2809626D0,0.2809392D0,0.2809011D0,0.2808328D0,0.2806917D0,0.2803199D0,0.2786766D0,
(PID.TID 0000.0001) > apressure_nlon    = 1280,
(PID.TID 0000.0001) > apressure_nlat    = 640,
(PID.TID 0000.0001) >#
(PID.TID 0000.0001) > atemp_lon0        =   0.0000000D0,
(PID.TID 0000.0001) > atemp_lon_inc     =   0.2812500D0,
(PID.TID 0000.0001) > atemp_lat0        = -89.7848850D0,
(PID.TID 0000.0001) > atemp_lat_inc     = 0.2786766D0,0.2803199D0,0.2806917D0,0.2808328D0,0.2809011D0,0.2809392D0,0.2809626D0,0.2809781D0,
(PID.TID 0000.0001) >                     0.2809888D0,0.2809965D0,0.2810023D0,0.2810067D0,0.2810102D0,0.2810129D0,0.2810151D0,
(PID.TID 0000.0001) >                     33*0.2810258D0,543*0.2810302D0,33*0.2810258D0,
(PID.TID 0000.0001) >                     0.2810151D0,0.2810129D0,0.2810102D0,0.2810067D0,0.2810023D0,0.2809965D0,0.2809888D0,0.2809781D0,
(PID.TID 0000.0001) >                     0.2809626D0,0.2809392D0,0.2809011D0,0.2808328D0,0.2806917D0,0.2803199D0,0.2786766D0,
(PID.TID 0000.0001) > atemp_nlon        = 1280,
(PID.TID 0000.0001) > atemp_nlat        = 640,
(PID.TID 0000.0001) >#
(PID.TID 0000.0001) > aqh_lon0        =   0.0000000D0,
(PID.TID 0000.0001) > aqh_lon_inc     =   0.2812500D0,
(PID.TID 0000.0001) > aqh_lat0        = -89.7848850D0,
(PID.TID 0000.0001) > aqh_lat_inc     = 0.2786766D0,0.2803199D0,0.2806917D0,0.2808328D0,0.2809011D0,0.2809392D0,0.2809626D0,0.2809781D0,
(PID.TID 0000.0001) >                     0.2809888D0,0.2809965D0,0.2810023D0,0.2810067D0,0.2810102D0,0.2810129D0,0.2810151D0,
(PID.TID 0000.0001) >                     33*0.2810258D0,543*0.2810302D0,33*0.2810258D0,
(PID.TID 0000.0001) >                     0.2810151D0,0.2810129D0,0.2810102D0,0.2810067D0,0.2810023D0,0.2809965D0,0.2809888D0,0.2809781D0,
(PID.TID 0000.0001) >                     0.2809626D0,0.2809392D0,0.2809011D0,0.2808328D0,0.2806917D0,0.2803199D0,0.2786766D0,
(PID.TID 0000.0001) > aqh_nlon        = 1280,
(PID.TID 0000.0001) > aqh_nlat        = 640,
(PID.TID 0000.0001) >#
(PID.TID 0000.0001) > precip_lon0        =   0.0000000D0,
(PID.TID 0000.0001) > precip_lon_inc     =   0.2812500D0,
(PID.TID 0000.0001) > precip_lat0        = -89.7848850D0,
(PID.TID 0000.0001) > precip_lat_inc     = 0.2786766D0,0.2803199D0,0.2806917D0,0.2808328D0,0.2809011D0,0.2809392D0,0.2809626D0,0.2809781D0,
(PID.TID 0000.0001) >                     0.2809888D0,0.2809965D0,0.2810023D0,0.2810067D0,0.2810102D0,0.2810129D0,0.2810151D0,
(PID.TID 0000.0001) >                     33*0.2810258D0,543*0.2810302D0,33*0.2810258D0,
(PID.TID 0000.0001) >                     0.2810151D0,0.2810129D0,0.2810102D0,0.2810067D0,0.2810023D0,0.2809965D0,0.2809888D0,0.2809781D0,
(PID.TID 0000.0001) >                     0.2809626D0,0.2809392D0,0.2809011D0,0.2808328D0,0.2806917D0,0.2803199D0,0.2786766D0,
(PID.TID 0000.0001) > precip_nlon        = 1280,
(PID.TID 0000.0001) > precip_nlat        = 640,
(PID.TID 0000.0001) >#
(PID.TID 0000.0001) > uwind_lon0        =   0.0000000D0,
(PID.TID 0000.0001) > uwind_lon_inc     =   0.2812500D0,
(PID.TID 0000.0001) > uwind_lat0        = -89.7848850D0,
(PID.TID 0000.0001) > uwind_lat_inc     = 0.2786766D0,0.2803199D0,0.2806917D0,0.2808328D0,0.2809011D0,0.2809392D0,0.2809626D0,0.2809781D0,
(PID.TID 0000.0001) >                     0.2809888D0,0.2809965D0,0.2810023D0,0.2810067D0,0.2810102D0,0.2810129D0,0.2810151D0,
(PID.TID 0000.0001) >                     33*0.2810258D0,543*0.2810302D0,33*0.2810258D0,
(PID.TID 0000.0001) >                     0.2810151D0,0.2810129D0,0.2810102D0,0.2810067D0,0.2810023D0,0.2809965D0,0.2809888D0,0.2809781D0,
(PID.TID 0000.0001) >                     0.2809626D0,0.2809392D0,0.2809011D0,0.2808328D0,0.2806917D0,0.2803199D0,0.2786766D0,
(PID.TID 0000.0001) > uwind_nlon        = 1280,
(PID.TID 0000.0001) > uwind_nlat        = 640,
(PID.TID 0000.0001) >#
(PID.TID 0000.0001) > vwind_lon0        =   0.0000000D0,
(PID.TID 0000.0001) > vwind_lon_inc     =   0.2812500D0,
(PID.TID 0000.0001) > vwind_lat0        = -89.7848850D0,
(PID.TID 0000.0001) > vwind_lat_inc     = 0.2786766D0,0.2803199D0,0.2806917D0,0.2808328D0,0.2809011D0,0.2809392D0,0.2809626D0,0.2809781D0,
(PID.TID 0000.0001) >                     0.2809888D0,0.2809965D0,0.2810023D0,0.2810067D0,0.2810102D0,0.2810129D0,0.2810151D0,
(PID.TID 0000.0001) >                     33*0.2810258D0,543*0.2810302D0,33*0.2810258D0,
(PID.TID 0000.0001) >                     0.2810151D0,0.2810129D0,0.2810102D0,0.2810067D0,0.2810023D0,0.2809965D0,0.2809888D0,0.2809781D0,
(PID.TID 0000.0001) >                     0.2809626D0,0.2809392D0,0.2809011D0,0.2808328D0,0.2806917D0,0.2803199D0,0.2786766D0,
(PID.TID 0000.0001) > vwind_nlon        = 1280,
(PID.TID 0000.0001) > vwind_nlat        = 640,
(PID.TID 0000.0001) >#
(PID.TID 0000.0001) > swdown_lon0        =   0.0000000D0,
(PID.TID 0000.0001) > swdown_lon_inc     =   0.2812500D0,
(PID.TID 0000.0001) > swdown_lat0        = -89.7848850D0,
(PID.TID 0000.0001) > swdown_lat_inc     = 0.2786766D0,0.2803199D0,0.2806917D0,0.2808328D0,0.2809011D0,0.2809392D0,0.2809626D0,0.2809781D0,
(PID.TID 0000.0001) >                     0.2809888D0,0.2809965D0,0.2810023D0,0.2810067D0,0.2810102D0,0.2810129D0,0.2810151D0,
(PID.TID 0000.0001) >                     33*0.2810258D0,543*0.2810302D0,33*0.2810258D0,
(PID.TID 0000.0001) >                     0.2810151D0,0.2810129D0,0.2810102D0,0.2810067D0,0.2810023D0,0.2809965D0,0.2809888D0,0.2809781D0,
(PID.TID 0000.0001) >                     0.2809626D0,0.2809392D0,0.2809011D0,0.2808328D0,0.2806917D0,0.2803199D0,0.2786766D0,
(PID.TID 0000.0001) > swdown_nlon        = 1280,
(PID.TID 0000.0001) > swdown_nlat        = 640,
(PID.TID 0000.0001) >#
(PID.TID 0000.0001) > lwdown_lon0        =   0.0000000D0,
(PID.TID 0000.0001) > lwdown_lon_inc     =   0.2812500D0,
(PID.TID 0000.0001) > lwdown_lat0        = -89.7848850D0,
(PID.TID 0000.0001) > lwdown_lat_inc     = 0.2786766D0,0.2803199D0,0.2806917D0,0.2808328D0,0.2809011D0,0.2809392D0,0.2809626D0,0.2809781D0,
(PID.TID 0000.0001) >                     0.2809888D0,0.2809965D0,0.2810023D0,0.2810067D0,0.2810102D0,0.2810129D0,0.2810151D0,
(PID.TID 0000.0001) >                     33*0.2810258D0,543*0.2810302D0,33*0.2810258D0,
(PID.TID 0000.0001) >                     0.2810151D0,0.2810129D0,0.2810102D0,0.2810067D0,0.2810023D0,0.2809965D0,0.2809888D0,0.2809781D0,
(PID.TID 0000.0001) >                     0.2809626D0,0.2809392D0,0.2809011D0,0.2808328D0,0.2806917D0,0.2803199D0,0.2786766D0,
(PID.TID 0000.0001) > lwdown_nlon        = 1280,
(PID.TID 0000.0001) > lwdown_nlat        = 640,
(PID.TID 0000.0001) >#
(PID.TID 0000.0001) > tidePot_lon0       = 0.0D0,
(PID.TID 0000.0001) > tidePot_lon_inc    = 1.0D0,
(PID.TID 0000.0001) > tidePot_lat0       = -90.0D0,
(PID.TID 0000.0001) > tidePot_lat_inc    = 180*1.0D0,
(PID.TID 0000.0001) > tidePot_nlon       = 360,
(PID.TID 0000.0001) > tidePot_nlat       = 181,
(PID.TID 0000.0001) >#
(PID.TID 0000.0001) > runoff_lon0       = 0.50D0,
(PID.TID 0000.0001) > runoff_lon_inc    = 1.0D0,
(PID.TID 0000.0001) > runoff_lat0       = -89.5D0,
(PID.TID 0000.0001) > runoff_lat_inc    = 179*1.,
(PID.TID 0000.0001) > runoff_nlon       = 360,
(PID.TID 0000.0001) > runoff_nlat       = 180,
(PID.TID 0000.0001) > &
(PID.TID 0000.0001) >#
(PID.TID 0000.0001) > &EXF_NML_OBCS
(PID.TID 0000.0001) >  obcsSstartdate1   = 20071215,
(PID.TID 0000.0001) >  obcsSstartdate2   = 060000,
(PID.TID 0000.0001) >  obcsSperiod       = 2629800.0,
(PID.TID 0000.0001) >#
(PID.TID 0000.0001) >  obcsNstartdate1   = 20071215,
(PID.TID 0000.0001) >  obcsNstartdate2   = 060000,
(PID.TID 0000.0001) >  obcsNperiod       = 2629800.0,
(PID.TID 0000.0001) > &
(PID.TID 0000.0001) 
(PID.TID 0000.0001) EXF_READPARMS: reading EXF_NML_01
(PID.TID 0000.0001) EXF_READPARMS: reading EXF_NML_02
(PID.TID 0000.0001) EXF_READPARMS: reading EXF_NML_03
(PID.TID 0000.0001) EXF_READPARMS: reading EXF_NML_04
(PID.TID 0000.0001) EXF_READPARMS: reading EXF_NML_OBCS
(PID.TID 0000.0001) EXF_READPARMS: finished reading data.exf
(PID.TID 0000.0001)  OBCS_READPARMS: opening data.obcs
(PID.TID 0000.0001)  OPEN_COPY_DATA_FILE: opening file data.obcs
(PID.TID 0000.0001) // =======================================================
(PID.TID 0000.0001) // Parameter file "data.obcs"
(PID.TID 0000.0001) // =======================================================
(PID.TID 0000.0001) ># ***************
(PID.TID 0000.0001) ># Open boundaries
(PID.TID 0000.0001) ># ***************
(PID.TID 0000.0001) > &OBCS_PARM01
(PID.TID 0000.0001) >OB_Jnorth = 1815*531,
(PID.TID 0000.0001) >OB_Jsouth = 1815*2,
(PID.TID 0000.0001) >#
(PID.TID 0000.0001) > useOBCSprescribe=.TRUE.,
(PID.TID 0000.0001) ># useOBCSsponge=.true.,
(PID.TID 0000.0001) > OBCS_monSelect = 3,
(PID.TID 0000.0001) ># >0: use 1rst O. upwind adv-scheme @ OB (=1: only if outflow)
(PID.TID 0000.0001) > OBCS_u1_adv_T = 1,
(PID.TID 0000.0001) > OBCS_u1_adv_S = 1,
(PID.TID 0000.0001) >#
(PID.TID 0000.0001) > OBSsFile='OBSs_1815x100x26.bin',
(PID.TID 0000.0001) > OBStFile='OBSt_1815x100x26.bin',
(PID.TID 0000.0001) > OBSuFile='OBSu_1815x100x26.bin',
(PID.TID 0000.0001) > OBSvFile='OBSv_1815x100x26.bin',
(PID.TID 0000.0001) >#
(PID.TID 0000.0001) > OBNsFile='OBNs_1815x100x26.bin',
(PID.TID 0000.0001) > OBNtFile='OBNt_1815x100x26.bin',
(PID.TID 0000.0001) > OBNuFile='OBNu_1815x100x26.bin',
(PID.TID 0000.0001) > OBNvFile='OBNv_1815x100x26.bin',
(PID.TID 0000.0001) ># Balancing
(PID.TID 0000.0001) > useOBCSbalance = .TRUE.,
(PID.TID 0000.0001) > OBCS_balanceFacN = -1,
(PID.TID 0000.0001) > OBCS_balanceFacS = -1,
(PID.TID 0000.0001) >## *****************************************
(PID.TID 0000.0001) >## Tidal BC parameters
(PID.TID 0000.0001) >## *****************************************
(PID.TID 0000.0001) > useOBCStides = .TRUE.,
(PID.TID 0000.0001) >##components   = M2       S2     N2       K2       K1      O1       P1       Q1       Mf         Mm
(PID.TID 0000.0001) >##periods (hr) = 12.4206  12     12.6583  11.9672  23.9345 25.8193  24.0659  26.8684  327.8599   661.31
(PID.TID 0000.0001) >##period(sec)  = 44714.165 43200.001 45570.054 43082.05 86164.077 92949.636 86637.2 96726.086 1180295.5 2380715.9
(PID.TID 0000.0001) >##components      m2        s2        n2        k2        k1        o1        p1        q1        mf        mm        m4        ms4       mn4
(PID.TID 0000.0001) >##period (hr): 12.420601 12.000000 12.658348 11.967236 23.934466 25.819343 24.065889 26.868357 327.859874 661.309962 6.210303 6.103339 6.269178
(PID.TID 0000.0001) >##period (s):  44714.165192 43200.001287 45570.053512 43082.050319 86164.077005 92949.635701 86637.199772 96726.085703 1180295.545550 2380715.863587 22357.090551 21972.021930 22569.042448
(PID.TID 0000.0001) > tidalPeriod  = 44714.165 43200.001 45570.054 43082.050 86164.077 92949.636 86637.200 96726.086 1180295.546 2380715.864 22357.091 21972.022 22569.042,
(PID.TID 0000.0001) > OBSamFile='OBSvam_1815x13.bin',
(PID.TID 0000.0001) > OBNamFile='OBNvam_1815x13.bin',
(PID.TID 0000.0001) > OBSphFile='OBSvph_1815x13.bin',
(PID.TID 0000.0001) > OBNphFile='OBNvph_1815x13.bin',
(PID.TID 0000.0001) > OBEamFile='OBEuam_532x13.bin',
(PID.TID 0000.0001) > OBEphFile='OBEuph_532x13.bin',
(PID.TID 0000.0001) > &
(PID.TID 0000.0001) ># *****************************************
(PID.TID 0000.0001) ># Sponge Layer Parameters.
(PID.TID 0000.0001) ># *****************************************
(PID.TID 0000.0001) > &OBCS_PARM03
(PID.TID 0000.0001) ># Urelaxobcsinner=2629800.E0,
(PID.TID 0000.0001) ># Urelaxobcsbound=43200.E0,
(PID.TID 0000.0001) >#
(PID.TID 0000.0001) ># Vrelaxobcsinner=2629800.E0,
(PID.TID 0000.0001) ># Vrelaxobcsbound=43200.E0,
(PID.TID 0000.0001) >#
(PID.TID 0000.0001) ># spongeThickness=16,
(PID.TID 0000.0001) > &
(PID.TID 0000.0001) 
(PID.TID 0000.0001)  OBCS_READPARMS: finished reading data.obcs
(PID.TID 0000.0001)  OB_indexUnset = /* unset OB index value (i.e. no OB) */
(PID.TID 0000.0001)                       0
(PID.TID 0000.0001)     ;
(PID.TID 0000.0001)  Northern OB global indices : OB_Jnorth =
(PID.TID 0000.0001)  1815 @      531                            /* I =  1:*** */
(PID.TID 0000.0001)  Southern OB global indices : OB_Jsouth =
(PID.TID 0000.0001)  1815 @        2                            /* I =  1:*** */
(PID.TID 0000.0001)  Eastern  OB global indices : OB_Ieast =
(PID.TID 0000.0001)   532 @        0                            /* J =  1:532 */
(PID.TID 0000.0001)  Western  OB global indices : OB_Iwest =
(PID.TID 0000.0001)   532 @        0                            /* J =  1:532 */
(PID.TID 0000.0001) 
(PID.TID 0000.0001)  KPP_READPARMS: opening data.kpp
(PID.TID 0000.0001)  OPEN_COPY_DATA_FILE: opening file data.kpp
(PID.TID 0000.0001) // =======================================================
(PID.TID 0000.0001) // Parameter file "data.kpp"
(PID.TID 0000.0001) // =======================================================
(PID.TID 0000.0001) ># KPP parameters
(PID.TID 0000.0001) > &KPP_PARM01
(PID.TID 0000.0001) >### KPPmixingMaps   = .FALSE.,
(PID.TID 0000.0001) >### KPPwriteState   = .FALSE.,
(PID.TID 0000.0001) >### kpp_dumpFreq    = 0.,
(PID.TID 0000.0001) >### kpp_tavefreq    = 0.,
(PID.TID 0000.0001) >### Ricr            = 0.3559,
(PID.TID 0000.0001) >### Riinfty         = 0.6998,
(PID.TID 0000.0001) > &
(PID.TID 0000.0001) 
(PID.TID 0000.0001)  KPP_READPARMS ; starts to read KPP_PARM01
(PID.TID 0000.0001)  KPP_READPARMS ; read KPP_PARM01 : OK
(PID.TID 0000.0001)  KPP_READPARMS: finished reading data.kpp
(PID.TID 0000.0001)  DIAGNOSTICS_READPARMS: opening data.diagnostics
(PID.TID 0000.0001)  OPEN_COPY_DATA_FILE: opening file data.diagnostics
(PID.TID 0000.0001) // =======================================================
(PID.TID 0000.0001) // Parameter file "data.diagnostics"
(PID.TID 0000.0001) // =======================================================
(PID.TID 0000.0001) ># Diagnostic Package Choices
(PID.TID 0000.0001) >#-----------------
(PID.TID 0000.0001) ># for each output-stream:
(PID.TID 0000.0001) >#  filename(n) : prefix of the output file name (only 8.c long) for outp.stream n
(PID.TID 0000.0001) >#  frequency(n):< 0 : write snap-shot output every multiple of |frequency| (iter)
(PID.TID 0000.0001) >#               > 0 : write time-average output every multiple of frequency (iter)
(PID.TID 0000.0001) >#  levels(:,n) : list of levels to write to file (Notes: declared as REAL)
(PID.TID 0000.0001) >#                 when this entry is missing, select all common levels of this list
(PID.TID 0000.0001) >#  fields(:,n) : list of diagnostics fields (8.c) (see "available_diagnostics" file
(PID.TID 0000.0001) >#                 for the list of all available diag. in this particular config)
(PID.TID 0000.0001) >#--------------------------------------------------------------------
(PID.TID 0000.0001) >#
(PID.TID 0000.0001) > &diagnostics_list
(PID.TID 0000.0001) >#
(PID.TID 0000.0001) >   dumpatlast = .TRUE.,
(PID.TID 0000.0001) >#
(PID.TID 0000.0001) >#---
(PID.TID 0000.0001) >  frequency(1) = 3600.0,
(PID.TID 0000.0001) >   fields(1:5,1) = 'ETAN', 'oceTAUX', 'oceTAUY', 'EXFuwind', 'EXFvwind',
(PID.TID 0000.0001) >   filename(1) = 'diags/surface',
(PID.TID 0000.0001) >#---
(PID.TID 0000.0001) >  frequency(2) = 2592000.0,
(PID.TID 0000.0001) >   fields(1:9,2)='THETA','SALT','UVEL','VVEL','WVEL','UVELSQ','VVELSQ','WTHMASS','WSLTMASS',
(PID.TID 0000.0001) >   filename(2) = 'diags/interior',
(PID.TID 0000.0001) >#   levels(1:55,2) =  1., 2., 3., 4., 5., 6., 7., 8., 9.,10.,11.,13.,15.,
(PID.TID 0000.0001) >#                     17.,19.,21.,23.,25.,27.,29.,31.,33.,35.,37.,39.,41.,43.,45.,
(PID.TID 0000.0001) >#                     47.,49.,51.,53.,55.,57.,59.,61.,63.,65.,67.,69.,71.,73.,75.,
(PID.TID 0000.0001) >#                     77.,79.,81.,83.,85.,87.,89.,91.,93.,95.,97.,99.,
(PID.TID 0000.0001) > /
(PID.TID 0000.0001) >#
(PID.TID 0000.0001) >#
(PID.TID 0000.0001) ># Parameter for Diagnostics of per level statistics:
(PID.TID 0000.0001) >#-----------------
(PID.TID 0000.0001) ># for each output-stream:
(PID.TID 0000.0001) >#  stat_fname(n) : prefix of the output file name (only 8.c long) for outp.stream n
(PID.TID 0000.0001) >#  stat_freq(n):< 0 : write snap-shot output every |stat_freq| seconds
(PID.TID 0000.0001) >#               > 0 : write time-average output every stat_freq seconds
(PID.TID 0000.0001) >#  stat_phase(n)    : write at time = stat_phase + multiple of |stat_freq|
(PID.TID 0000.0001) >#  stat_region(:,n) : list of "regions" (default: 1 region only=global)
(PID.TID 0000.0001) >#  stat_fields(:,n) : list of diagnostics fields (8.c) (see "available_diagnostics.log"
(PID.TID 0000.0001) >#                 file for the list of all available diag. in this particular config)
(PID.TID 0000.0001) >#-----------------
(PID.TID 0000.0001) > &DIAG_STATIS_PARMS
(PID.TID 0000.0001) ># diagSt_regMaskFile='basin_masks_eccollc_90x50.bin',
(PID.TID 0000.0001) ># nSetRegMskFile=1,
(PID.TID 0000.0001) ># set_regMask(1)= 1,  1,  1,  1,  1,  1,  1,  1,  1,
(PID.TID 0000.0001) >#                 1,  1,  1,  1,  1,  1,  1,  1
(PID.TID 0000.0001) ># val_regMask(1)= 1., 2., 3., 4., 5., 6., 7., 8., 9.,
(PID.TID 0000.0001) >#                10.,11.,12.,13.,14.,15.,16.,17.
(PID.TID 0000.0001) >##---
(PID.TID 0000.0001) ># stat_fields(1,1)= 'ETAN    ','ETANSQ  ','DETADT2 ',
(PID.TID 0000.0001) >#                   'UVEL    ','VVEL    ','WVEL    ',
(PID.TID 0000.0001) >#                   'THETA   ','SALT    ',
(PID.TID 0000.0001) >#    stat_fname(1)= 'dynStDiag',
(PID.TID 0000.0001) >#     stat_freq(1)= 3153600.,
(PID.TID 0000.0001) ># stat_region(1,1)=  1, 2, 3, 4, 5, 6, 7, 8, 9,
(PID.TID 0000.0001) >#                   10,11,12,13,14,15,16,17
(PID.TID 0000.0001) >##---
(PID.TID 0000.0001) ># stat_fields(1,2)= 'oceTAUX ','oceTAUY ',
(PID.TID 0000.0001) >#                   'surForcT','surForcS','TFLUX   ','SFLUX   ',
(PID.TID 0000.0001) >#                   'oceQnet ','oceSflux','oceFWflx',
(PID.TID 0000.0001) >#    stat_fname(2)= 'surfStDiag',
(PID.TID 0000.0001) >#     stat_freq(2)= 3153600.,
(PID.TID 0000.0001) ># stat_region(1,2)=  1, 2, 3, 4, 5, 6, 7, 8, 9,
(PID.TID 0000.0001) >#                   10,11,12,13,14,15,16,17
(PID.TID 0000.0001) > /
(PID.TID 0000.0001) 
(PID.TID 0000.0001) S/R DIAGNOSTICS_READPARMS, read namelist "diagnostics_list": start
(PID.TID 0000.0001) S/R DIAGNOSTICS_READPARMS, read namelist "diagnostics_list": OK
(PID.TID 0000.0001) S/R DIAGNOSTICS_READPARMS, read namelist "DIAG_STATIS_PARMS": start
(PID.TID 0000.0001) S/R DIAGNOSTICS_READPARMS, read namelist "DIAG_STATIS_PARMS": OK
(PID.TID 0000.0001)  DIAGNOSTICS_READPARMS: global parameter summary:
(PID.TID 0000.0001)  dumpAtLast = /* always write time-ave diags at the end */
(PID.TID 0000.0001)                   T
(PID.TID 0000.0001)     ;
(PID.TID 0000.0001)  diag_mnc =   /* write NetCDF output files */
(PID.TID 0000.0001)                   F
(PID.TID 0000.0001)     ;
(PID.TID 0000.0001)  useMissingValue = /* put MissingValue where mask = 0 */
(PID.TID 0000.0001)                   F
(PID.TID 0000.0001)     ;
(PID.TID 0000.0001)  diagCG_maxIters = /* max number of iters in diag_cg2d */
(PID.TID 0000.0001)                    1000
(PID.TID 0000.0001)     ;
(PID.TID 0000.0001)  diagCG_resTarget = /* residual target for diag_cg2d */
(PID.TID 0000.0001)                 1.000000000000000E-07
(PID.TID 0000.0001)     ;
(PID.TID 0000.0001)  diagCG_pcOffDFac = /* preconditioner off-diagonal factor */
(PID.TID 0000.0001)                 9.611687812379854E-01
(PID.TID 0000.0001)     ;
(PID.TID 0000.0001) -----------------------------------------------------
(PID.TID 0000.0001)  DIAGNOSTICS_READPARMS: active diagnostics summary:
(PID.TID 0000.0001) -----------------------------------------------------
(PID.TID 0000.0001) Creating Output Stream: diags/surface
(PID.TID 0000.0001) Output Frequency:       3600.000000 ; Phase:           0.000000
(PID.TID 0000.0001)  Averaging Freq.:       3600.000000 , Phase:           0.000000 , Cycle:   1
(PID.TID 0000.0001)  missing value: -9.990000000000E+02
(PID.TID 0000.0001)  Levels:    will be set later
(PID.TID 0000.0001)  Fields:    ETAN     oceTAUX  oceTAUY  EXFuwind EXFvwind
(PID.TID 0000.0001) Creating Output Stream: diags/interior
(PID.TID 0000.0001) Output Frequency:    2592000.000000 ; Phase:           0.000000
(PID.TID 0000.0001)  Averaging Freq.:    2592000.000000 , Phase:           0.000000 , Cycle:   1
(PID.TID 0000.0001)  missing value: -9.990000000000E+02
(PID.TID 0000.0001)  Levels:    will be set later
(PID.TID 0000.0001)  Fields:    THETA    SALT     UVEL     VVEL     WVEL     UVELSQ   VVELSQ   WTHMASS  WSLTMASS
(PID.TID 0000.0001) -----------------------------------------------------
(PID.TID 0000.0001)  DIAGNOSTICS_READPARMS: statistics diags. summary:
(PID.TID 0000.0001) -----------------------------------------------------
(PID.TID 0000.0001) 
(PID.TID 0000.0001) SET_PARMS: done
(PID.TID 0000.0001)  MDS_READVEC_LOC: open file: delYFile
(PID.TID 0000.0001) S/R LOAD_GRID_SPACING: delY loaded from file: delYFile
(PID.TID 0000.0001) Enter INI_VERTICAL_GRID: setInterFDr=    T ; setCenterDr=    F
(PID.TID 0000.0001) %MON XC_max                       =  -5.9791692097973E+00
(PID.TID 0000.0001) %MON XC_min                       =  -8.1562502543132E+01
(PID.TID 0000.0001) %MON XC_mean                      =  -4.3137201855846E+01
(PID.TID 0000.0001) %MON XC_sd                        =   2.0424998826490E+01
(PID.TID 0000.0001) %MON XG_max                       =  -6.0000025431306E+00
(PID.TID 0000.0001) %MON XG_min                       =  -8.1583335876465E+01
(PID.TID 0000.0001) %MON XG_mean                      =  -4.3158035189179E+01
(PID.TID 0000.0001) %MON XG_sd                        =   2.0424998826490E+01
(PID.TID 0000.0001) %MON DXC_max                      =   4.1321680787049E+03
(PID.TID 0000.0001) %MON DXC_min                      =   3.3626505081640E+03
(PID.TID 0000.0001) %MON DXC_mean                     =   3.7688379354867E+03
(PID.TID 0000.0001) %MON DXC_sd                       =   2.2123866065857E+02
(PID.TID 0000.0001) %MON DXF_max                      =   4.1321680787049E+03
(PID.TID 0000.0001) %MON DXF_min                      =   3.3626505081640E+03
(PID.TID 0000.0001) %MON DXF_mean                     =   3.7688379354867E+03
(PID.TID 0000.0001) %MON DXF_sd                       =   2.2123866065857E+02
(PID.TID 0000.0001) %MON DXG_max                      =   4.1327922661025E+03
(PID.TID 0000.0001) %MON DXG_min                      =   3.3634327493196E+03
(PID.TID 0000.0001) %MON DXG_mean                     =   3.7695610776573E+03
(PID.TID 0000.0001) %MON DXG_sd                       =   2.2119398199636E+02
(PID.TID 0000.0001) %MON DXV_max                      =   4.1327922661025E+03
(PID.TID 0000.0001) %MON DXV_min                      =   3.3634327493196E+03
(PID.TID 0000.0001) %MON DXV_mean                     =   3.7695610776573E+03
(PID.TID 0000.0001) %MON DXV_sd                       =   2.2119398199636E+02
(PID.TID 0000.0001) %MON YC_max                       =   4.3456317901611E+01
(PID.TID 0000.0001) %MON YC_min                       =   2.6872378349304E+01
(PID.TID 0000.0001) %MON YC_mean                      =   3.5275583727019E+01
(PID.TID 0000.0001) %MON YC_sd                        =   4.7474247172398E+00
(PID.TID 0000.0001) %MON YG_max                       =   4.3442249298096E+01
(PID.TID 0000.0001) %MON YG_min                       =   2.6855293273926E+01
(PID.TID 0000.0001) %MON YG_mean                      =   3.5259938400870E+01
(PID.TID 0000.0001) %MON YG_sd                        =   4.7482908185653E+00
(PID.TID 0000.0001) %MON DYC_max                      =   3.7984208896988E+03
(PID.TID 0000.0001) %MON DYC_min                      =   3.1290718017248E+03
(PID.TID 0000.0001) %MON DYC_mean                     =   3.4788279395744E+03
(PID.TID 0000.0001) %MON DYC_sd                       =   1.9225943821366E+02
(PID.TID 0000.0001) %MON DYF_max                      =   3.7989510252033E+03
(PID.TID 0000.0001) %MON DYF_min                      =   3.1282235849176E+03
(PID.TID 0000.0001) %MON DYF_mean                     =   3.4788156621358E+03
(PID.TID 0000.0001) %MON DYF_sd                       =   1.9277710102670E+02
(PID.TID 0000.0001) %MON DYG_max                      =   3.7989510252033E+03
(PID.TID 0000.0001) %MON DYG_min                      =   3.1282235849176E+03
(PID.TID 0000.0001) %MON DYG_mean                     =   3.4788156621358E+03
(PID.TID 0000.0001) %MON DYG_sd                       =   1.9277710102670E+02
(PID.TID 0000.0001) %MON DYU_max                      =   3.7984208896988E+03
(PID.TID 0000.0001) %MON DYU_min                      =   3.1290718017248E+03
(PID.TID 0000.0001) %MON DYU_mean                     =   3.4788279395744E+03
(PID.TID 0000.0001) %MON DYU_sd                       =   1.9225943821366E+02
(PID.TID 0000.0001) %MON RA_max                       =   1.5697903926271E+07
(PID.TID 0000.0001) %MON RA_min                       =   1.0519122521772E+07
(PID.TID 0000.0001) %MON RA_mean                      =   1.3153740588860E+07
(PID.TID 0000.0001) %MON RA_sd                        =   1.4919356433086E+06
(PID.TID 0000.0001) %MON RAW_max                      =   1.5697903926271E+07
(PID.TID 0000.0001) %MON RAW_min                      =   1.0519122521772E+07
(PID.TID 0000.0001) %MON RAW_mean                     =   1.3153740588860E+07
(PID.TID 0000.0001) %MON RAW_sd                       =   1.4919356433086E+06
(PID.TID 0000.0001) %MON RAS_max                      =   1.5693341326465E+07
(PID.TID 0000.0001) %MON RAS_min                      =   1.0524423130684E+07
(PID.TID 0000.0001) %MON RAS_mean                     =   1.3156063218928E+07
(PID.TID 0000.0001) %MON RAS_sd                       =   1.4887747834009E+06
(PID.TID 0000.0001) %MON RAZ_max                      =   1.5693341326465E+07
(PID.TID 0000.0001) %MON RAZ_min                      =   1.0524423130684E+07
(PID.TID 0000.0001) %MON RAZ_mean                     =   1.3156063218928E+07
(PID.TID 0000.0001) %MON RAZ_sd                       =   1.4887747834009E+06
(PID.TID 0000.0001) %MON AngleCS_max                  =   1.0000000000000E+00
(PID.TID 0000.0001) %MON AngleCS_min                  =   1.0000000000000E+00
(PID.TID 0000.0001) %MON AngleCS_mean                 =   1.0000000000000E+00
(PID.TID 0000.0001) %MON AngleCS_sd                   =   1.1102230246252E-16
(PID.TID 0000.0001) %MON AngleSN_max                  =   0.0000000000000E+00
(PID.TID 0000.0001) %MON AngleSN_min                  =   0.0000000000000E+00
(PID.TID 0000.0001) %MON AngleSN_mean                 =   0.0000000000000E+00
(PID.TID 0000.0001) %MON AngleSN_sd                   =   0.0000000000000E+00
(PID.TID 0000.0001)  MDS_READ_FIELD: opening global file: bathy.bin
(PID.TID 0000.0001) // =======================================================
(PID.TID 0000.0001) // Field Model R_low (ini_masks_etc)
(PID.TID 0000.0001) // CMIN =         -5.628649414062500E+03
(PID.TID 0000.0001) // CMAX =         -5.000000000000000E+00
(PID.TID 0000.0001) // CINT =          2.082833116319445E+02
(PID.TID 0000.0001) // SYMBOLS (CMIN->CMAX): -abcdefghijklmnopqrstuvwxyz+
(PID.TID 0000.0001) //                  0.0: .
(PID.TID 0000.0001) // RANGE I (Lo:Hi:Step):(    -3:   334:     1)
(PID.TID 0000.0001) // RANGE J (Lo:Hi:Step):(    32:    -3:    -1)
(PID.TID 0000.0001) // RANGE K (Lo:Hi:Step):(   1:   1:   1)
(PID.TID 0000.0001) // =======================================================
(PID.TID 0000.0001) K =   1
(PID.TID 0000.0001) //                I=6       I=16      I=26      I=36      I=38      I=48      I=58      I=68      I=70      I=80      I=90      I=100     I=102     I=112     I=122     I=132     I=134     I=144     I=154     I=164     I=166     I=176     I=186     I=196     I=198     I=208     I=218     I=228     I=230     I=240     I=250     I=260     I=262     I=272     I=282     I=292     I=294     I=304     I=314     I=324     I=334
(PID.TID 0000.0001) // |--J--|321012345|789012345|789012345|789012345|701234567|901234567|901234567|901234567|903456789|123456789|123456789|123456789|123678901|345678901|345678901|345678901|345690123|567890123|567890123|567890123|567892345|789012345|789012345|789012345|789012567|901234567|901234567|901234567|901234589|123456789|123456789|123456789|123456781|345678901|345678901|345678901|345678901|567890123|567890123|567890123|567890123|
(PID.TID 0000.0001) //     32 ..............................+++++++++++++++++++++zzzyyyyxwwwwxxxxxxxxxwwwwwwwwwwwwwwwwwwwwwvvvvvvvvvvvvvvvvvvvvvvvvuuuuuuvvuuuuuuuuuuvvvvuuvuuuusqhdcccccccccccccccccccccccccdcccccccccccccdcccccccddddddddddddddddddddeeeeeefffeeeeeeeeeeeeeeeeddddeeeedddddddddccccccccccccccccddccccccccccccccccccbbbbabbaaaaa---aaaaaaaaa---aaaaaa--aaaaaaaaaaaa--------------aa--aaaaaaabbaaaaaabbaaaabbbaaabbbbbaabcdccbcbddcbbbbc
(PID.TID 0000.0001) //     31 ...............................++++++++++++++++++++zzzyyyyxxwwwxxxxxxxxxxwwwwwwwwwwwwwwwwwwwwvvvvvvvvvvvvvvvvvvvvvvvuuuuuuuvuuuuuuuuuuuuvvvvvvuuustngdcccdcddddccccddddccccdddddcccccccccccccdcdcccccdddddddddddddddddddddeeeeffffeeeeeeeeeeeeeeeeddddeeeeddddddddddcccccccccccccccddddccccccccccccccccbbbbaaaaaaaaa--aaaaaaaaaa--a--aaa--a--aaaaaaaaa--------------a--aaaaaaaabaaaaaaabaaaabbbbaaaabbbbbabccccbbcdcbbbbbb
(PID.TID 0000.0001) //     30 ...............................++++++++++++++++++++zzzyyyyxxwwwxxxxxxxxxxxwwwwwwwwwwwwwwwwwwwvvvvvvvvvvvvvvvvvvvvvuuuuuuuuuuuuuuuuuuvvuuuuuuvvuuutpgedccdddddddccccddddccccddcccccccccccccccdddddccccdddddddddddddddddddddeeeffffffeeeeeeeeeeeeeeeddddeeeeddddddddddcccccccdccccccddddcccccccccccccccccbbbbaaaaaaaaa--aaaaaaaaaaaaa--aaaaaa--aaaaaaaaaa--------a----aa--aaaaaaaaaaaaaaaaaaaabbbbaaaabbbbbbbbbccbcedbbbbbbc
(PID.TID 0000.0001) //     29 ...............................++++++++++++++++++++zzzyyyyxxwwwxxxxxxxxxxxxwwwwwwwxwwwwwwwwwwwvvvvvvvvvvvvvvvvvvvuuuuuuuvvuuuuuuvvuuvvvuuuuuuvuuutojecccccccddddccccddddcccccccccccccccccccddddddddddddddddddddddddddddddeeeeefffffeeeeeeeeeeeeeeeddddeeeedddddddddccccccccdddddccddddcccccccccccccccccbbbbaaaaaaaa-----aaaaaaaaaaaa----aaaa----aaaaaaaaaaaa---a--aaaa-aaaaaaaaaaaaaaaaaaaabbbbbbaaabbbbbbbbbbbbdebbbbbbbc
(PID.TID 0000.0001) //     28 ................................+++++++++++++++++++zzzyyyyxxwwxxxxxxxxxxxxxxwwwwwwxxwwwwwwwwwwvvvvvvvvvvvvvvvvvvuuuuuuuuuvuuuuuuuvuuvvvvuuuuuvuuttolfcccccccddddccccddddcccccccccccccccdcccddddcddddddddddddddddddddddddeeeeeefffffeeeeeeeeeeeeeedddddeeeddddddddddccccccccddddddddddccccccccccccccccccbbbbaaaaaa-----aa----aaaaaaaa-a--aaaa-a----aaaaaaaaa------aaa---aaaaaaaaaaaaaaaaaababbbbbbabbbbbbbbbbbbbbcdbbbbbbcc
(PID.TID 0000.0001) //     27 ................................+++++++++++++++++++zzzyyyyxxxxxxxxxxxxxxxxxxxwwwwwxxxwwwwwwwwwvvvvvvvvvvvvvvvvvuuuuuuuuuuvvuuuuuuvvvvvvvuuuuvvuustqnhdccccccdddddcccdddddcccccdddcccccdcccccddddddddddddddddddddddddddedeeeeeefffffeeeeeeeeeeeeeedddddeeeddddddddccccccccdddddddddccccccccccccbcccccccbbbbbaaaaa----aaaaa-----aaaaaaaaa-aaaaaaa---aaaaaaaa----------a--aaaaabaaaaaaabaaaababbbbbbbbbbbbbbbbbbbbbbcbbbbbccc
(PID.TID 0000.0001) //     26 .................................++++++++++++++++++zzzyyyyxxxxxxxxxxxxxxxxxxxxwwwwxxxxwwwwwwwwwvvvvvvvvvvvvvvvvuuuuuuuuuuvvuuuuuuvvvvvvvuuuuuvuututpjdcccccccdddddddcdddddddcdddddccdddccdddddcccdddddddddddddddddddddedeeeeefffffeeeeeeeeeeeeeeddddddeedddddddccccccccddddddddddddcccccccccccbcccccccbbbbbaaaaa---aaaaaaa-----aaaaaaaa-aaaaaaa----aaaaaaa--aaa--------aaaaaaaabbaaaaaabbaaabbbbbbbbbbbbbbbbbbabbcbbbbcccc
(PID.TID 0000.0001) //     25 .................................++++++++++++++++++zzzyyyyxxxxxxxxxxyyyxxxxxxxxwwwxxxxxwwwwwwwwvvvvvvvvvvvvvvvuuuuuttuuuuvvttuuuuvvvvvvvuuuuuuuuuutrkdcbcccccdddddddcddddddddddddddddddcdddddddccddddddddddddddddddddddddeeeefffffeeeeeeeeeeeddedddddddedddddddccccccccdddddddddddccccccccccccbcccccccbbbbaaaaaa---aaaaaaa-------aaa-aa--aaa-aa------a--aa--aaa--------aaaaaaaaaaaaaaaaaaaaabbbbbbbbbbbbabbbbbbbbbbbbbcccc
(PID.TID 0000.0001) //     24 .................................++++++++++++++++++zzzyyyyxxxxxxxxxyyyyyyyxxxxxxwwxxxxxxwwwwwwwwvvvvvvvvvvvvuuuuuuuttuuuuvvttuuuuvvvvvvvuuuuuuuutttrlecbbccccdddddddcddddddddddddddddddcdddddddddddddddddddddddddddddddddeeeffffffeeeeeeeeeeedeeddddddeeddddddcccccccdcddddcdddddcccccccccccccbcccccccbbbbbaaaaaa-aaaaaaaaa------aa---aa-aa---aa-----a-aa-------------aaaaaaaaaaaaaaaaaaaaabbbbbbbbbbbbbbbbbbabbbbbbbbcccc
(PID.TID 0000.0001) //     23 ..................................+++++++.+++++++++zzzyyyyxxxxxxxxxyyyyyyyyyxxxxxwyyxxxxxwwwwwwwvvvvvvvvvvvuuuuuuuutttuuuvvtttuuuvvvvvuuuuuuuuuutttpjecbccccccddddddccddddddddddddddddddddddddddddddddddddddddddddddddddeeeeffffffeeeeeeeeedeeeddddddceddddddccccccccdcddddccddcccccccccccccccbcccccccbbbbaaaaaaaaaaaaaaaaa-------a----a--a----a-aaa-aaaa---------aaaaaaaaaaaaabbaaaaaabbbbabbbbbaabbbbbbbbbcbbbbbbbbbcccc
(PID.TID 0000.0001) //     22 ..................................+++++++.+++++++++zzzyyyyxxxxxxxxxyyyyyyyyyyyxxxxyyyyxxxxxwwwwwwvvvvvvvvvuuuuuuuuutttuuuvvtttuuuvvvvuuuuuvuuuuttsrlhdccccccccddddddccddddddddddddddddddddddddddddddddddddeeedddddeeedddeeeeffffffeeeeeeeedeeeedddddddedddddddcccccccccccccdccccccccccccccccccbcccccccbbbbaaaaaaaaaaaaaaaaaa-----aaa-----aaa----aaaa-aaaa---------a--aaaaabaabbbaabaabbbaababbbaaaaabbbbaaabbbbbbbbbbbbccc
(PID.TID 0000.0001) //     21 ..................................+++++++.+++++++++zzzyyyyxxxxxxxxxyyyyyyyyyyyyyxxyyyyyyxxxxwwwwwvvvvvvvvvuuuuuuuuuttttuuuvttttuuuvvvvuuuuuuuuutsqmheddcccccccddddddccddddddddddddddddddddddddddddddddddddeeedddddeeeddeeeefffffffeeeeeeeedeeeddddcccdddddcccddcccccccccccccccccccccccccccccccbcccccccbbbbaaaaaaaaaaaaaaaaaa-----aaaaa---aaaaa---aaa--aaa------------aaaaaabbbbbaaabbbbbabaabbbbaaaabbbbaabcbbabbbbbbbbccc
(PID.TID 0000.0001) //     20 ...................................++++++..++++++++zzzyyyyxxxxxxxxxyyyyzyyyyyyyyyyyyyyyyyyxxxwwwwwvvvvvvvvuuuuuuuuuttttuuuvttttuuuvvvvvuuuuuuuttrqlfeedddcccccddddddccddddddddddddddddddddddddcdddddddddddeeddddddeedddeeeeffgffffeeeeeedeeeeeddddcccdddddcccdcccccccccccccccccccccccccccccccbbccccccbbbbbaaaaaaaaaaaaaaaaaa----aaaaaa--aaaaaa--------aa--aa--------aaaaaaaabaaaaaaabaaaaaaabbbbaaabbbbaaadcbbbbbbbbcbcccc
(PID.TID 0000.0001) //     19 ..................................+++++++.+++++++++zzzyyyyxwwxxxxxxyyyzzzyyyyyyyyyyyyyyyyyyyxxxwwwwvvvvvvvuuvuuuuuttttttuuutttttuuuuvvvuuuuuuuutttqkgeeedcccdcdddddddcddddddddddddddddddddddddcdddddddddddddddddddddddeeeeeffgffffeeeeeeeeeeedddcccdccddcccdccccccccccccccccccccccccccccccccbbbcccccbbbbbbaaaaaaaaaaaaaaaaaa---aaaaaaa--aaaaaa--aa-----a-aaaa--aaaa--aaaaaaaaaaaaaaaaaaaabaabbbbaaabbbbaaabaabbbbbbbcccccc
(PID.TID 0000.0001) //     18 ..................................+++++++.+++++++++zzzyyyyxxwxxxxxxyyyzzzzzzzzzyyyzzzzzyyyyyyxxxxwwwvvvvvvvvvvuuttttttttuuutttttuuuvvvvvuutttuuttusphfeddccdcccdddddcccddddddddddddddddddddddddddddddddddddddddddddddeeeeeeffffffeeeeeeeeeeeddddccccccddcccccccccccccccccccccccccccccccccccbbbbccccbbbbbbbbaaaaaaaaaaaaaaaa----aaaaaaa-aaaaaaa-aaa--------aaaaaaaa---aaaaaaaaaaaaaaaaaaaabbbaabaaabbabbbbaaaabbbbbbbbccccc
(PID.TID 0000.0001) //     17 ...................................++++++..++++++++zzzyyyyxwwxxxxxxyyzzzzzzzzzzzzzzzzzzzzzyyyyyxxxxwwvvvvvvvvvvuuuuuttttuuuuttttuuuuuvvvvuuuuuuttutqjgeddccccccdddddcccdddddddddddddddddddddddddedddddddddeeddddddeedeeeeefffffffeeeeeeeeeeedddddcdcccdddcdcccccccccccccccccccccccccccccbccbbbbcbccbbbbbbbbbaaaaaaaaaaaaaaa---aaaaaaaa--aaaaaa----------a-a----aa---aaaaaababbbbbababbbbbbbaaaaaaabaaabbbaaabbbbbbbbbccccc
(PID.TID 0000.0001) //     16 ...................................++++++..++++++++zzzyyyxxwwwxxxxxyyz+++++++++++z+++++++zzzzyyyyxxxwwwvvvvvvvvvuuuuuttuuuuuuttuuuuuvuvvvuuuuuuttttqmifddcccccccddddccccdddddddddddddddddddddddeeeddddddddeeedddddeeeeeeefffffffeeeeeeeeeeeeddddddddccddddddccccccccccccccccccccccccccccbbbbbbbcbbbbbbbbbbbaaaaaaaaaaaaaaaa--aaaaaaaa---aaaaa---aa--a--------------aaaaaaabbabbbbabbabbbbbaaabaaaaaaaaabccaabbbbbbbbbbbccc
(PID.TID 0000.0001) //     15 ....................................+++++...+++++++zzzyyyxxxxxxxxxxyyz++++++++++++++++++++++zzzyyyyxxwwwwvwvvvvvvvuuuuuuuuuuuuuuuuuuuuuuuuuuuuuttttspkgedcccccccddddccccdddddddddddddddddddddddeeeeeddededeeedededeeeeeeeffffffeeeeeeeedeeeeddddddddccddddddccccccccccccccccccccccccccccbbbbbbbcbbbbbbbbbbbaaaaaaaaaaaaaaaa--aaaaaaa----aaaa------a------aa-------aaaaaaabaaaaaabbaaaaaabbbaaaaaaaaaaabbbcbbbbbbbbcbbbbbcc
(PID.TID 0000.0001) //     14 ....................................+++++...+++++++zzzyyyxxxwxxxxxxyyz+++++++++++++++++++++++++zzzyyxxxxwwwwvvvvvvvuuuuuuuuuuuuuuuuuuuuuuuuuuuttstssrlgedddcccccddddccccddddddddddddddddddddddeeeeeeeeeeeeeeeeeeeeeeeeeefffffffeeeeeeddddededdddddddccddddddccccccccccccccccccccccccccccbbbbbbbcbbbbbbbbbbbaaaaaaaaaaaaaaa----aaaaa-----aaa-------aa------aa------aaaaaaaabaaaaababaaaaabbbaaaaaaaaaaabbbbbbbbbbbbcbbbbbbc
(PID.TID 0000.0001) //     13 .....................................++++....++++++zzzyyyxxwwwxxxxxyyz+++++++++++++++++++++++++++zzzyyxxxxwwwwvvvvvuuuuuuuuuuuuuuuuuuuuuuuuutttssssspieddddccccccdddcccccdddddddddddddddddddddeeeeeeddeeeeeeedeeeeeeeeefffffffffeeeedddddeedddddddddccddddddcccccccccccccccccccccccccccbbbbbbbbbbbbbbbbbbbbaaaaaaaaaaaaaaa----aaa-------a----------a------------a--aaaaaaaaaaaabbaaaaaabbbaaaaaaaaaabaabbbbbbbbbbbcbbbbbbb
(PID.TID 0000.0001) //     12 .....................................++++....++++++zzzyyyyxwwwxxxxxyyz++++++++++++++++++++++++++..+zzzyyxxxxwwvvvvvvuuutttuvuuutttuuuuuuuuttsttssssqmfeedddcccccccddccccccdddddddddddddddedddeeeeeeeddeeeeeeedeeeeeeeeefgfffffffeeeeddddddedddddddddccddddddcccccccccccccccccccccccccccbbcbbbbbbbcbbbbbbbbbaaaaaaaaaaaaaaaa---aa-------------------a------------aaaaa-aaaaaaaabbbaaaaabbbaaaaaaaaabbaaaaabbbbbbbbbbbbbbbbb
(PID.TID 0000.0001) //     11 ......................................+++.....+++++zzzyyyyxxxwxxxxxyyz++++++++++++++++++++++++++...++zzyyyyxxwwvvvvvuuuttttvuuuttttuuuutttttsssrssrngeeeddccccccccddccccccdddddddddedddddedddeeeeeeedeeeeeeeeeeeeeeeeeffgfffffffeeeddddddeedddddddddccddddddcccccccccccccccccccccccccbbbbcbbbbbbbcbbbbbbbbaaaaaaaaaaaaaaaaaa--aa----------------------------aaa---aa--aaaaaaaaabbaaaaaabbbaaaaaaaabbabaaabbbbbbbbbbbbbccbb
(PID.TID 0000.0001) //     10 ......................................+++.....+++++zzzyyyyxwwwwxxxxxyzz+++++++++++++++++++++++++....+++zzyyyyxwwwvvvvuutsssvvuutssstttttsrssssrrssqifeeedccccccdddddcccddddddddddddeeddddddddeeeeeeeeeeeeeeeeeeeeeeeeeffgfffffffeeeeddddeeeeddddddddccddddddcccccccccccccccccccccccccbbbbbbbbbbbbbbbbbbbbbaaaaaaaaaaaaaaaaaaaaaaa-------a------------------a------aa--aaaaaaaaabbaaaaaabbaaaaaaaaabaabaabbbbbbbbbbbbbbcbbb
(PID.TID 0000.0001) //      9 .......................................++......++++zzzyyyyxxwwwxxxxxyzz++++++++++++++++++++++++++.....+++zzzyyyxwwwvvvuusrrvvvuusrrrsssrqqrrrrsssrjffeddccccccddddddccdddddddddddddeeeeddddddeeeeeeeeeeeeeeeeeeeeeeeeefgggffffffeeeeeeeeeeeedddddddddcdddddddccccccccccbcccccccccccccbbbbbbbbbbbbbbbbbbbbaaaaaaaaaaaaaaaaaaaaaaa----------------------aaaa-------aa-aaaaaabaaaaababaaaaabbaaaaaaaaaaabbbbbbbbbbbbbbbbbcbbb
(PID.TID 0000.0001) //      8 .......................................++......++++zzzyyyyxxwwwxxxxxyzz+++++++++++++++++++++++++........+++zzzzyyxxwvvvutsrwvvvutsrrrrrrqrrqpqrqpnigfeddccccdddddddddddddddddddddddeeeeddeeeeeeeeeddeeeeeeeeeeeeeeeeeefgggffffeeeeeeeeeeeeedddddddddccddddddccccccccccbbcccccccccccccbbbbbbbbbbbbbbbbbbbaaaaaaaaaaaaaaaaaaaaaaaaa-------a-------aaaaaa-a---------a--aaaaaabaaabbbabaaabbbbaaaaaaaaaaabbbbbbbbbbbbbbbbbbbbb
(PID.TID 0000.0001) //      7 .......................................++......++++zzzyyyyxxwwwxxxxxyzz+++++++++++++++++++++++++..........++++zzzyyxwvvuuttxwvvuuttssrrssssqponoprhgfeddcccddddddddddddddddddddddddeeeeeeeeeeeeeeeddeeeeeeeeeeeeeeeeeffgggffffffeeeeeeeeeeeedddddddddcdddddddcccccccccbbcccccccccccccbbbbbbbbbbbbbbbbbbbaaaaaaaaaaaaaaaaaaaaaaaaaa--aaaaaa--aaaaa---------------aa---aaaaabbaabbbabbaabbbaaaaaaaaaaaaabbbbbbbbbbbbbbbbbbbb
(PID.TID 0000.0001) //      6 ........................................+.......+++zzzyyyyxxwwwxxxxxyzz++++++++++++++++++++++++...............+++zzyxxwvtuuyxxwvtuuuutstuttrpmjjkkgfedccccddedddddddedddddddddddddddeeeeeeeeeeeeeedddeeeeeeffeeeeeefffffffffffffeeeeeeeeeeeedddddddddcdddddddccccccccbbccccccccccccccbbbbbbbbbbbbbbbbbbbbaaaaaaaaaaaaaaaaaaaaaaaaaaa----aaaa---------a----------a-a--aaaaabaaaaaaabaaaaaaaaaaaaaaaaaaabbbbbbbbbbbccbbbaaab
(PID.TID 0000.0001) //      5 ........................................+.......+++zzzyyyxxxwwwxxxxxxyzzz+++++++++++++++++++++...................++zzyxwuuvzzyxwuuvuuttuuvvurojhgfeddcccccdddddddddddddddddddddddddddeeeeeeeeeeeeeeeeeeeeefffeeeeefffffffffffffffeeeeeeeeeeeddddddddccddddddcccccccccbbcccbbbbccccbbbbbbbbbbbbbbbbbbbbbbbbbaaaaaaaaaaaaaaaaaaaaaaaaa----aaaa------------aa------a-a-aaaaabaaaaaaabaaaaaaaaaaa-aaabaaaabbbbbbbbbbbcbbbaaaab
(PID.TID 0000.0001) //      4 ........................................+.......+++zzzyyyxxxwwwxxxxxxyzzzz++++++++++++++++++........................+zyxwvv.+zyxwvvuuuuuvvvutsonlhgeccccccdddddddddddddddddddddddddddeeeeeeeeeeeeeeeeeeeeefffeeeeeffffffffffffffffeeeeeeeeeddddddddddcdddddddccccccccbccccbbbbbcccbbbbbbbbbbbbbbbbbbbbbbbbaaaaaaaaaaaaaaaaaaaaa--aaa-----aaa-------------aa----a---aaaaaaaaaaaaaaaaaaaaaaaaaaaaabbaaaabbbbaabbbbbbbbbaaaaa
(PID.TID 0000.0001) //      3 ........................................+.......+++zzzyyyxxxwwwxxxxxxyyzzz+++++++++++++++++..........................+zyxwu..+zyxwuuuuuuvvvvuusstpnhddccccddddddddddddddddddddddeedddeeeeeeeeeeeeeeeeeeedefffeeedeffffefffffffffffeeeeeeeeeddddddddddcdddddddcccccccccccccbbbbbbccbbbbbbbbbbbbbbbbbbbbbbbbaaaaaaaaaaaaaaaaaaaa---aa------aa---------------aa-------aaaaaaaaaaaaaaaaaaaaaaaaaaaaabbaaaabbbbaaabbbbbbbaaaaaa
(PID.TID 0000.0001) //      2 ........................................+.......+++zzzyyyxxxxwwxxxxxxyyzzz++++++++++++++++............................+zyxw...+zyxwvvvvvvvvvuuttttrkeddccddddddddddddddddddddeeeeeddeeeeeeeeeeeeeeeeeeeeeeeffeeeeeeffeffffffffffffeeeeeeeeeddddddddddcdddddddccccccccccccbbbbcbbbbcbbbbbbbbbbbbbbbbbbbbbaaaaaaaaaaaaaaaa----a----a-------a-----------------a------aaaaaaaaaaaaaaaaaaaaaaaaaaaaabbaaaaabbbbbbbbbbbbbaaaaaaa
(PID.TID 0000.0001) //      1 ..........................................................................................................................................................................................................................................................................................................................................................................................................................
(PID.TID 0000.0001) //      0 ..........................................................................................................................................................................................................................................................................................................................................................................................................................
(PID.TID 0000.0001) //     -1 .................................................................................................................................................................................................................................................................................................................................................+++++++zzzzzzzzzzzzzzzzzzzzzzzzzzzzzzzzzzzz++zzz+zzzzzzzzzzzzzzzzzzzzzzzz
(PID.TID 0000.0001) //     -2 ................................................................................................................................................................................................................................................................................................................................................+++++++zzzzzzzzzzzzzzzzzzzzzzzzzzzzzzzzzzzzzzz+++zzzzzzzzzzzzzzzzzzzzzzzzz
(PID.TID 0000.0001) //     -3 ................................................................................................................................................................................................................................................................................................................................................+++++++zzzzzzzzzzzzzzzzzzzzzzzzzzzzzzzzzzzzzzz+++zzzzzzzzzzzzzzzzzzzzzzzzz
(PID.TID 0000.0001) // =======================================================
(PID.TID 0000.0001) // END OF FIELD                                          =
(PID.TID 0000.0001) // =======================================================
(PID.TID 0000.0001) 
(PID.TID 0000.0001) // =======================================================
(PID.TID 0000.0001) // Field Model Ro_surf (ini_masks_etc)
(PID.TID 0000.0001) // CMIN =          1.000000000000000E+32
(PID.TID 0000.0001) // CMAX =         -1.000000000000000E+32
(PID.TID 0000.0001) // CINT =          0.000000000000000E+00
(PID.TID 0000.0001) // SYMBOLS (CMIN->CMAX): -abcdefghijklmnopqrstuvwxyz+
(PID.TID 0000.0001) //                  0.0: .
(PID.TID 0000.0001) // RANGE I (Lo:Hi:Step):(    -3:   334:     1)
(PID.TID 0000.0001) // RANGE J (Lo:Hi:Step):(    32:    -3:    -1)
(PID.TID 0000.0001) // RANGE K (Lo:Hi:Step):(   1:   1:   1)
(PID.TID 0000.0001) // =======================================================
(PID.TID 0000.0001) // =======================================================
(PID.TID 0000.0001) // END OF FIELD                                          =
(PID.TID 0000.0001) // =======================================================
(PID.TID 0000.0001) 
(PID.TID 0000.0001) // =======================================================
(PID.TID 0000.0001) // Field hFacC at iteration          0
(PID.TID 0000.0001) // CMIN =          1.000000000000000E+00
(PID.TID 0000.0001) // CMAX =          1.000000000000000E+00
(PID.TID 0000.0001) // CINT =          0.000000000000000E+00
(PID.TID 0000.0001) // SYMBOLS (CMIN->CMAX): -abcdefghijklmnopqrstuvwxyz+
(PID.TID 0000.0001) //                  0.0: .
(PID.TID 0000.0001) // RANGE I (Lo:Hi:Step):(    -3:   334:     1)
(PID.TID 0000.0001) // RANGE J (Lo:Hi:Step):(    32:    -3:    -1)
(PID.TID 0000.0001) // RANGE K (Lo:Hi:Step):(   1:   1:   1)
(PID.TID 0000.0001) // =======================================================
(PID.TID 0000.0001) // =======================================================
(PID.TID 0000.0001) // END OF FIELD                                          =
(PID.TID 0000.0001) // =======================================================
(PID.TID 0000.0001) 
(PID.TID 0000.0001) // =======================================================
(PID.TID 0000.0001) // Field hFacW at iteration          0
(PID.TID 0000.0001) // CMIN =          1.000000000000000E+00
(PID.TID 0000.0001) // CMAX =          1.000000000000000E+00
(PID.TID 0000.0001) // CINT =          0.000000000000000E+00
(PID.TID 0000.0001) // SYMBOLS (CMIN->CMAX): -abcdefghijklmnopqrstuvwxyz+
(PID.TID 0000.0001) //                  0.0: .
(PID.TID 0000.0001) // RANGE I (Lo:Hi:Step):(    -3:   334:     1)
(PID.TID 0000.0001) // RANGE J (Lo:Hi:Step):(    32:    -3:    -1)
(PID.TID 0000.0001) // RANGE K (Lo:Hi:Step):(   1:   1:   1)
(PID.TID 0000.0001) // =======================================================
(PID.TID 0000.0001) // =======================================================
(PID.TID 0000.0001) // END OF FIELD                                          =
(PID.TID 0000.0001) // =======================================================
(PID.TID 0000.0001) 
(PID.TID 0000.0001) // =======================================================
(PID.TID 0000.0001) // Field hFacS at iteration          0
(PID.TID 0000.0001) // CMIN =          1.000000000000000E+00
(PID.TID 0000.0001) // CMAX =          1.000000000000000E+00
(PID.TID 0000.0001) // CINT =          0.000000000000000E+00
(PID.TID 0000.0001) // SYMBOLS (CMIN->CMAX): -abcdefghijklmnopqrstuvwxyz+
(PID.TID 0000.0001) //                  0.0: .
(PID.TID 0000.0001) // RANGE I (Lo:Hi:Step):(    -3:   334:     1)
(PID.TID 0000.0001) // RANGE J (Lo:Hi:Step):(    32:    -3:    -1)
(PID.TID 0000.0001) // RANGE K (Lo:Hi:Step):(   1:   1:   1)
(PID.TID 0000.0001) // =======================================================
(PID.TID 0000.0001) // =======================================================
(PID.TID 0000.0001) // END OF FIELD                                          =
(PID.TID 0000.0001) // =======================================================
(PID.TID 0000.0001) 
(PID.TID 0000.0001) 
(PID.TID 0000.0001) // =======================================================
(PID.TID 0000.0001) // Calendar configuration >>> START <<<
(PID.TID 0000.0001) // =======================================================
(PID.TID 0000.0001) 
(PID.TID 0000.0001) modelstart = /* Start time of the model integration [s] */
(PID.TID 0000.0001)                 0.000000000000000E+00
(PID.TID 0000.0001)     ;
(PID.TID 0000.0001) modelend  = /* End time of the model integration [s] */
(PID.TID 0000.0001)                 3.600000000000000E+03
(PID.TID 0000.0001)     ;
(PID.TID 0000.0001) modelStep = /* Time interval for a model forward step [s] */
(PID.TID 0000.0001)                 2.400000000000000E+02
(PID.TID 0000.0001)     ;
(PID.TID 0000.0001) usingGregorianCalendar= /* Calendar Type: Gregorian Calendar */
(PID.TID 0000.0001)                   T
(PID.TID 0000.0001)     ;
(PID.TID 0000.0001) usingJulianCalendar = /* Calendar Type: Julian Calendar */
(PID.TID 0000.0001)                   F
(PID.TID 0000.0001)     ;
(PID.TID 0000.0001) usingNoLeapYearCal  = /* Calendar Type: without Leap Year */
(PID.TID 0000.0001)                   F
(PID.TID 0000.0001)     ;
(PID.TID 0000.0001) usingModelCalendar  = /* Calendar Type: Model Calendar */
(PID.TID 0000.0001)                   F
(PID.TID 0000.0001)     ;
(PID.TID 0000.0001) modelStartDate YYYYMMDD = /* Model start date YYYY-MM-DD */
(PID.TID 0000.0001)                20080101
(PID.TID 0000.0001)     ;
(PID.TID 0000.0001)   modelStartDate HHMMSS = /* Model start date HH-MM-SS  */
(PID.TID 0000.0001)                       0
(PID.TID 0000.0001)     ;
(PID.TID 0000.0001) modelEndDate   YYYYMMDD = /* Model end date YYYY-MM-DD */
(PID.TID 0000.0001)                20080101
(PID.TID 0000.0001)     ;
(PID.TID 0000.0001)   modelEndDate   HHMMSS = /* Model end date HH-MM-SS  */
(PID.TID 0000.0001)                   10000
(PID.TID 0000.0001)     ;
(PID.TID 0000.0001) intyears = /* Number of calendar years affected by the integration */
(PID.TID 0000.0001)                       1
(PID.TID 0000.0001)     ;
(PID.TID 0000.0001) intmonths= /* Number of calendar months affected by the integration */
(PID.TID 0000.0001)                       1
(PID.TID 0000.0001)     ;
(PID.TID 0000.0001) intdays = /* Number of calendar days affected by the integration */
(PID.TID 0000.0001)                       1
(PID.TID 0000.0001)     ;
(PID.TID 0000.0001) modelIter0 = /* Base timestep number  */
(PID.TID 0000.0001)                       0
(PID.TID 0000.0001)     ;
(PID.TID 0000.0001) modelIterEnd = /* Final timestep number  */
(PID.TID 0000.0001)                      15
(PID.TID 0000.0001)     ;
(PID.TID 0000.0001) modelIntSteps= /* Number of model timesteps  */
(PID.TID 0000.0001)                      15
(PID.TID 0000.0001)     ;
(PID.TID 0000.0001) 
(PID.TID 0000.0001) // =======================================================
(PID.TID 0000.0001) // Calendar configuration  >>> END <<<
(PID.TID 0000.0001) // =======================================================
(PID.TID 0000.0001) 
(PID.TID 0000.0001) GAD_INIT_FIXED: GAD_OlMinSize=  4  0  1
(PID.TID 0000.0001) 
(PID.TID 0000.0001) // ===================================
(PID.TID 0000.0001) // GAD parameters :
(PID.TID 0000.0001) // ===================================
(PID.TID 0000.0001) tempAdvScheme =   /* Temp. Horiz.Advection scheme selector */
(PID.TID 0000.0001)                       7
(PID.TID 0000.0001)     ;
(PID.TID 0000.0001) tempVertAdvScheme =   /* Temp. Vert. Advection scheme selector */
(PID.TID 0000.0001)                       7
(PID.TID 0000.0001)     ;
(PID.TID 0000.0001) tempMultiDimAdvec =   /* use Muti-Dim Advec method for Temp */
(PID.TID 0000.0001)                   T
(PID.TID 0000.0001)     ;
(PID.TID 0000.0001) tempSOM_Advection = /* use 2nd Order Moment Advection for Temp */
(PID.TID 0000.0001)                   F
(PID.TID 0000.0001)     ;
(PID.TID 0000.0001) AdamsBashforthGt = /* apply Adams-Bashforth extrapolation on Gt */
(PID.TID 0000.0001)                   F
(PID.TID 0000.0001)     ;
(PID.TID 0000.0001) AdamsBashforth_T = /* apply Adams-Bashforth extrapolation on Temp */
(PID.TID 0000.0001)                   F
(PID.TID 0000.0001)     ;
(PID.TID 0000.0001) saltAdvScheme =   /* Salt. Horiz.advection scheme selector */
(PID.TID 0000.0001)                       7
(PID.TID 0000.0001)     ;
(PID.TID 0000.0001) saltVertAdvScheme =   /* Salt. Vert. Advection scheme selector */
(PID.TID 0000.0001)                       7
(PID.TID 0000.0001)     ;
(PID.TID 0000.0001) saltMultiDimAdvec =   /* use Muti-Dim Advec method for Salt */
(PID.TID 0000.0001)                   T
(PID.TID 0000.0001)     ;
(PID.TID 0000.0001) saltSOM_Advection = /* use 2nd Order Moment Advection for Salt */
(PID.TID 0000.0001)                   F
(PID.TID 0000.0001)     ;
(PID.TID 0000.0001) AdamsBashforthGs = /* apply Adams-Bashforth extrapolation on Gs */
(PID.TID 0000.0001)                   F
(PID.TID 0000.0001)     ;
(PID.TID 0000.0001) AdamsBashforth_S = /* apply Adams-Bashforth extrapolation on Salt */
(PID.TID 0000.0001)                   F
(PID.TID 0000.0001)     ;
(PID.TID 0000.0001) // ===================================
(PID.TID 0000.0001) OBCS_INIT_FIXED: Setting OB indices in Overlap
(PID.TID 0000.0001)  Sets OBS(i,bi,bj=   37,  1,  1)=    2
(PID.TID 0000.0001)  Sets OBS(i,bi,bj=   34,  2,  1)=    2
(PID.TID 0000.0001)  Sets OBS(i,bi,bj=   35,  2,  1)=    2
(PID.TID 0000.0001)  Sets OBS(i,bi,bj=   36,  2,  1)=    2
(PID.TID 0000.0001)  Sets OBS(i,bi,bj=   37,  2,  1)=    2
(PID.TID 0000.0001)  Sets OBS(i,bi,bj=   -3,  3,  1)=    2
(PID.TID 0000.0001)  Sets OBS(i,bi,bj=   -2,  3,  1)=    2
(PID.TID 0000.0001)  Sets OBS(i,bi,bj=   -1,  3,  1)=    2
(PID.TID 0000.0001)  Sets OBS(i,bi,bj=    0,  3,  1)=    2
(PID.TID 0000.0001)  Sets OBS(i,bi,bj=   34,  3,  1)=    2
(PID.TID 0000.0001)  Sets OBS(i,bi,bj=   35,  3,  1)=    2
(PID.TID 0000.0001)  Sets OBS(i,bi,bj=   36,  3,  1)=    2
(PID.TID 0000.0001)  Sets OBS(i,bi,bj=   37,  3,  1)=    2
(PID.TID 0000.0001)  Sets OBS(i,bi,bj=    0,  4,  1)=    2
(PID.TID 0000.0001)  Sets OBS(i,bi,bj=   34,  4,  1)=    2
(PID.TID 0000.0001)  Sets OBS(i,bi,bj=   35,  4,  1)=    2
(PID.TID 0000.0001)  Sets OBS(i,bi,bj=   36,  4,  1)=    2
(PID.TID 0000.0001)  Sets OBS(i,bi,bj=   37,  4,  1)=    2
(PID.TID 0000.0001)  Sets OBS(i,bi,bj=   -3,  5,  1)=    2
(PID.TID 0000.0001)  Sets OBS(i,bi,bj=   -2,  5,  1)=    2
(PID.TID 0000.0001)  Sets OBS(i,bi,bj=   -1,  5,  1)=    2
(PID.TID 0000.0001)  Sets OBS(i,bi,bj=    0,  5,  1)=    2
(PID.TID 0000.0001)  Sets OBS(i,bi,bj=   34,  5,  1)=    2
(PID.TID 0000.0001)  Sets OBS(i,bi,bj=   35,  5,  1)=    2
(PID.TID 0000.0001)  Sets OBS(i,bi,bj=   36,  5,  1)=    2
(PID.TID 0000.0001)  Sets OBS(i,bi,bj=   37,  5,  1)=    2
(PID.TID 0000.0001)  Sets OBS(i,bi,bj=   -3,  6,  1)=    2
(PID.TID 0000.0001)  Sets OBS(i,bi,bj=   -2,  6,  1)=    2
(PID.TID 0000.0001)  Sets OBS(i,bi,bj=   -1,  6,  1)=    2
(PID.TID 0000.0001)  Sets OBS(i,bi,bj=    0,  6,  1)=    2
(PID.TID 0000.0001)  Sets OBS(i,bi,bj=   34,  6,  1)=    2
(PID.TID 0000.0001)  Sets OBS(i,bi,bj=   35,  6,  1)=    2
(PID.TID 0000.0001)  Sets OBS(i,bi,bj=   36,  6,  1)=    2
(PID.TID 0000.0001)  Sets OBS(i,bi,bj=   37,  6,  1)=    2
(PID.TID 0000.0001)  Sets OBS(i,bi,bj=   -3,  7,  1)=    2
(PID.TID 0000.0001)  Sets OBS(i,bi,bj=   -2,  7,  1)=    2
(PID.TID 0000.0001)  Sets OBS(i,bi,bj=   -1,  7,  1)=    2
(PID.TID 0000.0001)  Sets OBS(i,bi,bj=    0,  7,  1)=    2
(PID.TID 0000.0001)  Sets OBS(i,bi,bj=   34,  7,  1)=    2
(PID.TID 0000.0001)  Sets OBS(i,bi,bj=   35,  7,  1)=    2
(PID.TID 0000.0001)  Sets OBS(i,bi,bj=   36,  7,  1)=    2
(PID.TID 0000.0001)  Sets OBS(i,bi,bj=   37,  7,  1)=    2
(PID.TID 0000.0001)  Sets OBS(i,bi,bj=   -3,  8,  1)=    2
(PID.TID 0000.0001)  Sets OBS(i,bi,bj=   -2,  8,  1)=    2
(PID.TID 0000.0001)  Sets OBS(i,bi,bj=   -1,  8,  1)=    2
(PID.TID 0000.0001)  Sets OBS(i,bi,bj=    0,  8,  1)=    2
(PID.TID 0000.0001)  Sets OBS(i,bi,bj=   34,  8,  1)=    2
(PID.TID 0000.0001)  Sets OBS(i,bi,bj=   35,  8,  1)=    2
(PID.TID 0000.0001)  Sets OBS(i,bi,bj=   36,  8,  1)=    2
(PID.TID 0000.0001)  Sets OBS(i,bi,bj=   37,  8,  1)=    2
(PID.TID 0000.0001)  Sets OBS(i,bi,bj=   -3,  9,  1)=    2
(PID.TID 0000.0001)  Sets OBS(i,bi,bj=   -2,  9,  1)=    2
(PID.TID 0000.0001)  Sets OBS(i,bi,bj=   -1,  9,  1)=    2
(PID.TID 0000.0001)  Sets OBS(i,bi,bj=    0,  9,  1)=    2
(PID.TID 0000.0001)  Sets OBS(i,bi,bj=   34,  9,  1)=    2
(PID.TID 0000.0001)  Sets OBS(i,bi,bj=   35,  9,  1)=    2
(PID.TID 0000.0001)  Sets OBS(i,bi,bj=   36,  9,  1)=    2
(PID.TID 0000.0001)  Sets OBS(i,bi,bj=   37,  9,  1)=    2
(PID.TID 0000.0001)  Sets OBS(i,bi,bj=   -3, 10,  1)=    2
(PID.TID 0000.0001)  Sets OBS(i,bi,bj=   -2, 10,  1)=    2
(PID.TID 0000.0001)  Sets OBS(i,bi,bj=   -1, 10,  1)=    2
(PID.TID 0000.0001)  Sets OBS(i,bi,bj=    0, 10,  1)=    2
(PID.TID 0000.0001)  Sets OBS(i,bi,bj=   34, 10,  1)=    2
(PID.TID 0000.0001)  Sets OBS(i,bi,bj=   35, 10,  1)=    2
(PID.TID 0000.0001)  Sets OBS(i,bi,bj=   36, 10,  1)=    2
(PID.TID 0000.0001)  Sets OBS(i,bi,bj=   37, 10,  1)=    2
(PID.TID 0000.0001) OBCS_INIT_FIXED: Setting OB indices in Overlap <= done
(PID.TID 0000.0001) 
(PID.TID 0000.0001) // =======================================================
(PID.TID 0000.0001) // External forcing (EXF) configuration >>> START <<<
(PID.TID 0000.0001) // =======================================================
(PID.TID 0000.0001) 
(PID.TID 0000.0001)  EXF general parameters:
(PID.TID 0000.0001) 
(PID.TID 0000.0001) exf_iprec = /* exf file precision */
(PID.TID 0000.0001)                      32
(PID.TID 0000.0001)     ;
(PID.TID 0000.0001) useExfYearlyFields = /* add extension _YEAR to input file names */
(PID.TID 0000.0001)                   T
(PID.TID 0000.0001)     ;
(PID.TID 0000.0001) twoDigitYear = /* use 2-digit year extension */
(PID.TID 0000.0001)                   F
(PID.TID 0000.0001)     ;
(PID.TID 0000.0001) useExfCheckRange = /* check for fields range */
(PID.TID 0000.0001)                   F
(PID.TID 0000.0001)     ;
(PID.TID 0000.0001) exf_output_interp = /* output directly interpolation result */
(PID.TID 0000.0001)                   F
(PID.TID 0000.0001)     ;
(PID.TID 0000.0001) exf_debugLev = /* select EXF-debug printing level */
(PID.TID 0000.0001)                       2
(PID.TID 0000.0001)     ;
(PID.TID 0000.0001) exf_monFreq  = /* EXF monitor frequency [ s ] */
(PID.TID 0000.0001)                 2.400000000000000E+02
(PID.TID 0000.0001)     ;
(PID.TID 0000.0001) repeatPeriod = /* period for cycling forcing dataset [ s ] */
(PID.TID 0000.0001)                 0.000000000000000E+00
(PID.TID 0000.0001)     ;
(PID.TID 0000.0001) climTempFreeze= /* Minimum climatological temperature [deg.C] */
(PID.TID 0000.0001)                -1.900000000000000E+00
(PID.TID 0000.0001)     ;
(PID.TID 0000.0001) windStressMax = /* Maximum absolute windstress [ Pa ] */
(PID.TID 0000.0001)                 2.000000000000000E+00
(PID.TID 0000.0001)     ;
(PID.TID 0000.0001) stressIsOnCgrid = /* set u,v_stress on Arakawa C-grid */
(PID.TID 0000.0001)                   F
(PID.TID 0000.0001)     ;
(PID.TID 0000.0001) rotateStressOnAgrid = /* rotate u,v_stress on Arakawa A-grid */
(PID.TID 0000.0001)                   F
(PID.TID 0000.0001)     ;
(PID.TID 0000.0001) cen2kel = /* conversion of deg. Centigrade to Kelvin [K] */
(PID.TID 0000.0001)                 2.731500000000000E+02
(PID.TID 0000.0001)     ;
(PID.TID 0000.0001) gravity_mks= /* gravitational acceleration [m/s^2] */
(PID.TID 0000.0001)                 9.810000000000000E+00
(PID.TID 0000.0001)     ;
(PID.TID 0000.0001) atmrho =  /* mean atmospheric density [kg/m^3] */
(PID.TID 0000.0001)                 1.200000000000000E+00
(PID.TID 0000.0001)     ;
(PID.TID 0000.0001) atmcp =  /* mean atmospheric specific heat [J/kg/K] */
(PID.TID 0000.0001)                 1.005000000000000E+03
(PID.TID 0000.0001)     ;
(PID.TID 0000.0001) flamb =  /* latent heat of evaporation [J/kg] */
(PID.TID 0000.0001)                 2.500000000000000E+06
(PID.TID 0000.0001)     ;
(PID.TID 0000.0001) flami =  /* latent heat of pure-ice melting [J/kg] */
(PID.TID 0000.0001)                 3.340000000000000E+05
(PID.TID 0000.0001)     ;
(PID.TID 0000.0001) cvapor_fac = /* const. for Saturation calculation [?] */
(PID.TID 0000.0001)                 6.403800000000000E+05
(PID.TID 0000.0001)     ;
(PID.TID 0000.0001) cvapor_exp = /* const. for Saturation calculation [?] */
(PID.TID 0000.0001)                 5.107400000000000E+03
(PID.TID 0000.0001)     ;
(PID.TID 0000.0001) cvapor_fac_ice= /* const. for Saturation calculation [?] */
(PID.TID 0000.0001)                 1.163780000000000E+07
(PID.TID 0000.0001)     ;
(PID.TID 0000.0001) cvapor_exp_ice= /* const. for Saturation calculation [?] */
(PID.TID 0000.0001)                 5.897800000000000E+03
(PID.TID 0000.0001)     ;
(PID.TID 0000.0001) humid_fac = /* humidity coef. in virtual temp. [(kg/kg)^-1] */
(PID.TID 0000.0001)                 6.060000000000000E-01
(PID.TID 0000.0001)     ;
(PID.TID 0000.0001) gamma_blk = /* adiabatic lapse rate [?] */
(PID.TID 0000.0001)                 1.000000000000000E-02
(PID.TID 0000.0001)     ;
(PID.TID 0000.0001) saltsat = /* reduction of Qsat over salty water [-] */
(PID.TID 0000.0001)                 9.800000000000000E-01
(PID.TID 0000.0001)     ;
(PID.TID 0000.0001) noNegativeEvap = /* prevent negative Evaporation */
(PID.TID 0000.0001)                   F
(PID.TID 0000.0001)     ;
(PID.TID 0000.0001) sstExtrapol = /* extrapolation coeff from lev. 1 & 2 to surf [-] */
(PID.TID 0000.0001)                 0.000000000000000E+00
(PID.TID 0000.0001)     ;
(PID.TID 0000.0001) cDrag_1 = /* coef used in drag calculation [?] */
(PID.TID 0000.0001)                 2.700000000000000E-03
(PID.TID 0000.0001)     ;
(PID.TID 0000.0001) cDrag_2 = /* coef used in drag calculation [?] */
(PID.TID 0000.0001)                 1.420000000000000E-04
(PID.TID 0000.0001)     ;
(PID.TID 0000.0001) cDrag_3 = /* coef used in drag calculation [?] */
(PID.TID 0000.0001)                 7.640000000000000E-05
(PID.TID 0000.0001)     ;
(PID.TID 0000.0001) cStanton_1 = /* coef used in Stanton number calculation [?] */
(PID.TID 0000.0001)                 3.270000000000000E-02
(PID.TID 0000.0001)     ;
(PID.TID 0000.0001) cStanton_2 = /* coef used in Stanton number calculation [?] */
(PID.TID 0000.0001)                 1.800000000000000E-02
(PID.TID 0000.0001)     ;
(PID.TID 0000.0001) cDalton = /* coef used in Dalton number calculation [?] */
(PID.TID 0000.0001)                 3.460000000000000E-02
(PID.TID 0000.0001)     ;
(PID.TID 0000.0001) exf_scal_BulkCdn= /* Drag coefficient scaling factor [-] */
(PID.TID 0000.0001)                 1.000000000000000E+00
(PID.TID 0000.0001)     ;
(PID.TID 0000.0001) zolmin = /* minimum stability parameter [?] */
(PID.TID 0000.0001)                -1.000000000000000E+02
(PID.TID 0000.0001)     ;
(PID.TID 0000.0001) psim_fac = /* coef used in turbulent fluxes calculation [-] */
(PID.TID 0000.0001)                 5.000000000000000E+00
(PID.TID 0000.0001)     ;
(PID.TID 0000.0001) zref =  /* reference height [ m ] */
(PID.TID 0000.0001)                 1.000000000000000E+01
(PID.TID 0000.0001)     ;
(PID.TID 0000.0001) hu =  /* height of mean wind [ m ] */
(PID.TID 0000.0001)                 1.000000000000000E+01
(PID.TID 0000.0001)     ;
(PID.TID 0000.0001) ht =  /* height of mean temperature [ m ] */
(PID.TID 0000.0001)                 2.000000000000000E+00
(PID.TID 0000.0001)     ;
(PID.TID 0000.0001) hq =  /* height of mean spec.humidity [ m ] */
(PID.TID 0000.0001)                 2.000000000000000E+00
(PID.TID 0000.0001)     ;
(PID.TID 0000.0001) uMin = /* minimum wind speed [m/s] */
(PID.TID 0000.0001)                 5.000000000000000E-01
(PID.TID 0000.0001)     ;
(PID.TID 0000.0001) useStabilityFct_overIce= /* transfert Coeffs over sea-ice depend on stability */
(PID.TID 0000.0001)                   F
(PID.TID 0000.0001)     ;
(PID.TID 0000.0001) exf_iceCd = /* drag coefficient over sea-ice (fixed) [-] */
(PID.TID 0000.0001)                 1.630000000000000E-03
(PID.TID 0000.0001)     ;
(PID.TID 0000.0001) exf_iceCe = /* transfert coeff. over sea-ice, for Evap (fixed) [-] */
(PID.TID 0000.0001)                 1.630000000000000E-03
(PID.TID 0000.0001)     ;
(PID.TID 0000.0001) exf_iceCh = /* transfert coeff. over sea-ice, Sens.Heat.(fixed)[-] */
(PID.TID 0000.0001)                 1.630000000000000E-03
(PID.TID 0000.0001)     ;
(PID.TID 0000.0001) exf_albedo =  /* Sea-water albedo [-] */
(PID.TID 0000.0001)                 1.000000000000000E-01
(PID.TID 0000.0001)     ;
(PID.TID 0000.0001) useExfZenAlbedo = /* Sea-water albedo varies with zenith angle */
(PID.TID 0000.0001)                   T
(PID.TID 0000.0001)     ;
(PID.TID 0000.0001) select_ZenAlbedo = /* Sea-water albedo computation method */
(PID.TID 0000.0001)                       1
(PID.TID 0000.0001)     ;
(PID.TID 0000.0001) useExfZenIncoming = /* compute incoming solar radiation */
(PID.TID 0000.0001)                   T
(PID.TID 0000.0001)     ;
(PID.TID 0000.0001) ocean_emissivity = /* longwave ocean-surface emissivity [-] */
(PID.TID 0000.0001)                 9.700000000000000E-01
(PID.TID 0000.0001)     ;
(PID.TID 0000.0001) ice_emissivity = /* longwave seaice emissivity [-] */
(PID.TID 0000.0001)                 9.500000000000000E-01
(PID.TID 0000.0001)     ;
(PID.TID 0000.0001) snow_emissivity = /* longwave snow  emissivity [-] */
(PID.TID 0000.0001)                 9.500000000000000E-01
(PID.TID 0000.0001)     ;
(PID.TID 0000.0001) 
(PID.TID 0000.0001)  EXF main CPP flags:
(PID.TID 0000.0001) 
(PID.TID 0000.0001) // USE_EXF_INTERPOLATION:              defined
(PID.TID 0000.0001) // ALLOW_ATM_TEMP:                     defined
(PID.TID 0000.0001) // ALLOW_ATM_WIND (useAtmWind):        defined
(PID.TID 0000.0001) // ALLOW_DOWNWARD_RADIATION:           defined
(PID.TID 0000.0001) // ALLOW_BULKFORMULAE:                 defined
(PID.TID 0000.0001) 
(PID.TID 0000.0001)    Zonal wind forcing starts at                          0.
(PID.TID 0000.0001)    Zonal wind forcing period is                       3600.
(PID.TID 0000.0001)    Zonal wind forcing repeat-cycle is                    0.
(PID.TID 0000.0001)    Zonal wind forcing is read from file:
(PID.TID 0000.0001)    >> era_forcing/ERA5_u10m <<
(PID.TID 0000.0001)    interpolate "uwind" (method= 12 ):
(PID.TID 0000.0001)    lon0=   0.00000, nlon=  1280, lon_inc= 0.2812500
(PID.TID 0000.0001)    lat0= -89.78489, nlat=   640, inc(min,max)= 0.27868 0.28103
(PID.TID 0000.0001) 
(PID.TID 0000.0001)    Meridional wind forcing starts at                     0.
(PID.TID 0000.0001)    Meridional wind forcing period is                  3600.
(PID.TID 0000.0001)    Meridional wind forcing repeat-cycle is               0.
(PID.TID 0000.0001)    Meridional wind forcing is read from file:
(PID.TID 0000.0001)    >> era_forcing/ERA5_v10m <<
(PID.TID 0000.0001)    interpolate "vwind" (method= 22 ):
(PID.TID 0000.0001)    lon0=   0.00000, nlon=  1280, lon_inc= 0.2812500
(PID.TID 0000.0001)    lat0= -89.78489, nlat=   640, inc(min,max)= 0.27868 0.28103
(PID.TID 0000.0001)     Interp. U & V comp. together: uvInterp_wind =    T
(PID.TID 0000.0001) 
(PID.TID 0000.0001)    Atmospheric temperature starts at                     0.
(PID.TID 0000.0001)    Atmospheric temperature period is                  3600.
(PID.TID 0000.0001)    Atmospheric temperature repeat-cycle is               0.
(PID.TID 0000.0001)    Atmospheric temperature is read from file:
(PID.TID 0000.0001)    >> era_forcing/ERA5_tmp2m_degC <<
(PID.TID 0000.0001)    interpolate "atemp" (method=  1 ):
(PID.TID 0000.0001)    lon0=   0.00000, nlon=  1280, lon_inc= 0.2812500
(PID.TID 0000.0001)    lat0= -89.78489, nlat=   640, inc(min,max)= 0.27868 0.28103
(PID.TID 0000.0001) 
(PID.TID 0000.0001)    Atmospheric specific humidity starts at               0.
(PID.TID 0000.0001)    Atmospheric specific humidity period is            3600.
(PID.TID 0000.0001)    Atmospheric specific humidity rep-cycle is            0.
(PID.TID 0000.0001)    Atmospheric specific humidity is read from file:
(PID.TID 0000.0001)    >> era_forcing/ERA5_spfh2m <<
(PID.TID 0000.0001)    interpolate "aqh" (method=  1 ):
(PID.TID 0000.0001)    lon0=   0.00000, nlon=  1280, lon_inc= 0.2812500
(PID.TID 0000.0001)    lat0= -89.78489, nlat=   640, inc(min,max)= 0.27868 0.28103
(PID.TID 0000.0001) 
(PID.TID 0000.0001) // ALLOW_READ_TURBFLUXES:          NOT defined
(PID.TID 0000.0001) // EXF_READ_EVAP:                  NOT defined
(PID.TID 0000.0001) 
(PID.TID 0000.0001)    Precipitation data starts at                       1800.
(PID.TID 0000.0001)    Precipitation data period is                       3600.
(PID.TID 0000.0001)    Precipitation data repeat-cycle is                    0.
(PID.TID 0000.0001)    Precipitation data is read from file:
(PID.TID 0000.0001)    >> era_forcing/ERA5_rain <<
(PID.TID 0000.0001)    interpolate "precip" (method=  1 ):
(PID.TID 0000.0001)    lon0=   0.00000, nlon=  1280, lon_inc= 0.2812500
(PID.TID 0000.0001)    lat0= -89.78489, nlat=   640, inc(min,max)= 0.27868 0.28103
(PID.TID 0000.0001) 
(PID.TID 0000.0001) // ALLOW_RUNOFF:                       defined
(PID.TID 0000.0001)    Runoff data period is                               -12.
(PID.TID 0000.0001)    Runoff data is read from file:
(PID.TID 0000.0001)    >> runoff1p2472-360x180x12.bin <<
(PID.TID 0000.0001)    interpolate "runoff" (method=  1 ):
(PID.TID 0000.0001)    lon0=   0.50000, nlon=   360, lon_inc= 1.0000000
(PID.TID 0000.0001)    lat0= -89.50000, nlat=   180, lat_inc= 1.0000000
(PID.TID 0000.0001) 
(PID.TID 0000.0001) // ALLOW_RUNOFTEMP:                NOT defined
(PID.TID 0000.0001) // ALLOW_SALTFLX:                      defined
(PID.TID 0000.0001) 
(PID.TID 0000.0001)    Downward shortwave flux starts at                  1800.
(PID.TID 0000.0001)    Downward shortwave flux period is                  3600.
(PID.TID 0000.0001)    Downward shortwave flux repeat-cycle is               0.
(PID.TID 0000.0001)    Downward shortwave flux is read from file:
(PID.TID 0000.0001)    >> era_forcing/ERA5_dsw <<
(PID.TID 0000.0001)    interpolate "swdown" (method=  1 ):
(PID.TID 0000.0001)    lon0=   0.00000, nlon=  1280, lon_inc= 0.2812500
(PID.TID 0000.0001)    lat0= -89.78489, nlat=   640, inc(min,max)= 0.27868 0.28103
(PID.TID 0000.0001) 
(PID.TID 0000.0001)    Downward longwave flux starts at                   1800.
(PID.TID 0000.0001)    Downward longwave flux period is                   3600.
(PID.TID 0000.0001)    Downward longwave flux repeat-cycle is                0.
(PID.TID 0000.0001)    Downward longwave flux is read from file:
(PID.TID 0000.0001)    >> era_forcing/ERA5_dlw <<
(PID.TID 0000.0001)    interpolate "lwdown" (method=  1 ):
(PID.TID 0000.0001)    lon0=   0.00000, nlon=  1280, lon_inc= 0.2812500
(PID.TID 0000.0001)    lat0= -89.78489, nlat=   640, inc(min,max)= 0.27868 0.28103
(PID.TID 0000.0001) 
(PID.TID 0000.0001)    Atmospheric pressure forcing starts at                0.
(PID.TID 0000.0001)    Atmospheric pressure forcing period is             3600.
(PID.TID 0000.0001)    Atmospheric pressure forcing rep-cycle is             0.
(PID.TID 0000.0001)    Atmospheric pressure forcing is read from file:
(PID.TID 0000.0001)    >> era_forcing/ERA5_pres <<
(PID.TID 0000.0001)    interpolate "apressure" (method=  1 ):
(PID.TID 0000.0001)    lon0=   0.00000, nlon=  1280, lon_inc= 0.2812500
(PID.TID 0000.0001)    lat0= -89.78489, nlat=   640, inc(min,max)= 0.27868 0.28103
(PID.TID 0000.0001) 
(PID.TID 0000.0001)    Tidal geopotential starts at                          0.
(PID.TID 0000.0001)    Tidal geopotential period is                       3600.
(PID.TID 0000.0001)    Tidal geopotential repeat-cycle is                    0.
(PID.TID 0000.0001)    Tidal geopotential is read from file:
(PID.TID 0000.0001)    >> tide_IAU_EARTH <<
(PID.TID 0000.0001)    interpolate "tidePot" (method=  1 ):
(PID.TID 0000.0001)    lon0=   0.00000, nlon=   360, lon_inc= 1.0000000
(PID.TID 0000.0001)    lat0= -90.00000, nlat=   181, lat_inc= 1.0000000
(PID.TID 0000.0001) 
(PID.TID 0000.0001) // =======================================================
(PID.TID 0000.0001) // External forcing (EXF) climatology configuration :
(PID.TID 0000.0001) // =======================================================
(PID.TID 0000.0001) 
(PID.TID 0000.0001) // ALLOW_CLIMSST_RELAXATION:       NOT defined
(PID.TID 0000.0001) 
(PID.TID 0000.0001) // ALLOW_CLIMSSS_RELAXATION:       NOT defined
(PID.TID 0000.0001) 
(PID.TID 0000.0001) // =======================================================
(PID.TID 0000.0001) // External forcing (EXF) configuration  >>> END <<<
(PID.TID 0000.0001) // =======================================================
(PID.TID 0000.0001) 
(PID.TID 0000.0001) ------------------------------------------------------------
(PID.TID 0000.0001) DIAGNOSTICS_SET_LEVELS: done
(PID.TID 0000.0001)  Total Nb of available Diagnostics: ndiagt=   213
(PID.TID 0000.0001)  write list of available Diagnostics to file: available_diagnostics.log
(PID.TID 0000.0001) SETDIAG: Allocate  1 x  1 Levels for Diagnostic #    23 ETAN
(PID.TID 0000.0001) SETDIAG: Allocate  1 x  1 Levels for Diagnostic #    80 oceTAUX
(PID.TID 0000.0001) SETDIAG: Allocate  1 x  1 Levels for Diagnostic #    81 oceTAUY
(PID.TID 0000.0001) SETDIAG: Allocate  1 x  1 Levels for Diagnostic #   185 EXFuwind
(PID.TID 0000.0001) SETDIAG: Allocate  1 x  1 Levels for Diagnostic #   186 EXFvwind
(PID.TID 0000.0001) SETDIAG: Allocate100 x  1 Levels for Diagnostic #    26 THETA
(PID.TID 0000.0001) SETDIAG: Allocate100 x  1 Levels for Diagnostic #    27 SALT
(PID.TID 0000.0001) SETDIAG: Allocate100 x  1 Levels for Diagnostic #    30 UVEL
(PID.TID 0000.0001) SETDIAG: Allocate100 x  1 Levels for Diagnostic #    31 VVEL
(PID.TID 0000.0001) SETDIAG: Allocate100 x  1 Levels for Diagnostic #    32 WVEL
(PID.TID 0000.0001) SETDIAG: Allocate100 x  1 Levels for Diagnostic #    36 UVELSQ
(PID.TID 0000.0001) SETDIAG: Allocate100 x  1 Levels for Diagnostic #    37 VVELSQ
(PID.TID 0000.0001) SETDIAG: Allocate100 x  1 Levels for Diagnostic #    52 WTHMASS
(PID.TID 0000.0001) SETDIAG: Allocate100 x  1 Levels for Diagnostic #    55 WSLTMASS
(PID.TID 0000.0001)   space allocated for all diagnostics:     905 levels
(PID.TID 0000.0001)   set mate pointer for diag #    80  oceTAUX  , Parms: UU      U1 , mate:    81
(PID.TID 0000.0001)   set mate pointer for diag #    81  oceTAUY  , Parms: VV      U1 , mate:    80
(PID.TID 0000.0001)   set mate pointer for diag #    30  UVEL     , Parms: UUR     MR , mate:    31
(PID.TID 0000.0001)   set mate pointer for diag #    31  VVEL     , Parms: VVR     MR , mate:    30
(PID.TID 0000.0001)   set mate pointer for diag #    36  UVELSQ   , Parms: UURP    MR , mate:    37
(PID.TID 0000.0001)   set mate pointer for diag #    37  VVELSQ   , Parms: VVRP    MR , mate:    36
(PID.TID 0000.0001) DIAGNOSTICS_SET_POINTERS: Set levels for Outp.Stream: diags/surface
(PID.TID 0000.0001)  Levels:       1.
(PID.TID 0000.0001) DIAGNOSTICS_SET_POINTERS: Set levels for Outp.Stream: diags/interior
(PID.TID 0000.0001)  Levels:       1.   2.   3.   4.   5.   6.   7.   8.   9.  10.  11.  12.  13.  14.  15.  16.  17.  18.  19.  20.
(PID.TID 0000.0001)  Levels:      21.  22.  23.  24.  25.  26.  27.  28.  29.  30.  31.  32.  33.  34.  35.  36.  37.  38.  39.  40.
(PID.TID 0000.0001)  Levels:      41.  42.  43.  44.  45.  46.  47.  48.  49.  50.  51.  52.  53.  54.  55.  56.  57.  58.  59.  60.
(PID.TID 0000.0001)  Levels:      61.  62.  63.  64.  65.  66.  67.  68.  69.  70.  71.  72.  73.  74.  75.  76.  77.  78.  79.  80.
(PID.TID 0000.0001)  Levels:      81.  82.  83.  84.  85.  86.  87.  88.  89.  90.  91.  92.  93.  94.  95.  96.  97.  98.  99. 100.
(PID.TID 0000.0001) DIAGNOSTICS_SET_POINTERS: done
(PID.TID 0000.0001) ------------------------------------------------------------
(PID.TID 0000.0001) DIAGSTATS_SET_REGIONS: define no region
(PID.TID 0000.0001) ------------------------------------------------------------
(PID.TID 0000.0001)   space allocated for all stats-diags:       0 levels
(PID.TID 0000.0001) DIAGSTATS_SET_POINTERS: done
(PID.TID 0000.0001) ------------------------------------------------------------
(PID.TID 0000.0001) %MON fCori_max                    =   1.0031064840358E-04
(PID.TID 0000.0001) %MON fCori_min                    =   6.5921486603128E-05
(PID.TID 0000.0001) %MON fCori_mean                   =   8.3936872523081E-05
(PID.TID 0000.0001) %MON fCori_sd                     =   9.8545159722241E-06
(PID.TID 0000.0001) %MON fCoriG_max                   =   1.0028465045639E-04
(PID.TID 0000.0001) %MON fCoriG_min                   =   6.5882690911173E-05
(PID.TID 0000.0001) %MON fCoriG_mean                  =   8.3904363816394E-05
(PID.TID 0000.0001) %MON fCoriG_sd                    =   9.8581982025545E-06
(PID.TID 0000.0001) %MON fCoriCos_max                 =   1.3009374988389E-04
(PID.TID 0000.0001) %MON fCoriCos_min                 =   1.0586689743103E-04
(PID.TID 0000.0001) %MON fCoriCos_mean                =   1.1865496523699E-04
(PID.TID 0000.0001) %MON fCoriCos_sd                  =   6.9652943530273E-06
(PID.TID 0000.0001) INI_CG2D: CG2D normalisation factor =  1.4987118910715993E-04
(PID.TID 0000.0001) INI_CG2D: cg2dTolerance = 7.057349561527462E-12 (Area=1.1301464310E+13)
(PID.TID 0000.0001) 
(PID.TID 0000.0001) // =======================================================
(PID.TID 0000.0001) // Model configuration
(PID.TID 0000.0001) // =======================================================
(PID.TID 0000.0001) //
(PID.TID 0000.0001) // "Physical" paramters ( PARM01 in namelist )
(PID.TID 0000.0001) //
(PID.TID 0000.0001) buoyancyRelation = /* Type of relation to get Buoyancy */
(PID.TID 0000.0001)               'OCEANIC'
(PID.TID 0000.0001)     ;
(PID.TID 0000.0001) fluidIsAir   =  /* fluid major constituent is Air */
(PID.TID 0000.0001)                   F
(PID.TID 0000.0001)     ;
(PID.TID 0000.0001) fluidIsWater =  /* fluid major constituent is Water */
(PID.TID 0000.0001)                   T
(PID.TID 0000.0001)     ;
(PID.TID 0000.0001) usingPCoords =  /* use p (or p*) vertical coordinate */
(PID.TID 0000.0001)                   F
(PID.TID 0000.0001)     ;
(PID.TID 0000.0001) usingZCoords =  /* use z (or z*) vertical coordinate */
(PID.TID 0000.0001)                   T
(PID.TID 0000.0001)     ;
(PID.TID 0000.0001) tRef =   /* Reference temperature profile ( oC or K ) */
(PID.TID 0000.0001)     5 @  1.889000000000000E+01,             /* K =  1:  5 */
(PID.TID 0000.0001)                 1.887000000000000E+01,      /* K =  6 */
(PID.TID 0000.0001)                 1.885000000000000E+01,      /* K =  7 */
(PID.TID 0000.0001)                 1.882000000000000E+01,      /* K =  8 */
(PID.TID 0000.0001)                 1.880000000000000E+01,      /* K =  9 */
(PID.TID 0000.0001)                 1.873000000000000E+01,      /* K = 10 */
(PID.TID 0000.0001)                 1.863000000000000E+01,      /* K = 11 */
(PID.TID 0000.0001)                 1.849000000000000E+01,      /* K = 12 */
(PID.TID 0000.0001)                 1.828000000000000E+01,      /* K = 13 */
(PID.TID 0000.0001)                 1.808000000000000E+01,      /* K = 14 */
(PID.TID 0000.0001)                 1.786000000000000E+01,      /* K = 15 */
(PID.TID 0000.0001)                 1.763000000000000E+01,      /* K = 16 */
(PID.TID 0000.0001)                 1.740000000000000E+01,      /* K = 17 */
(PID.TID 0000.0001)                 1.718000000000000E+01,      /* K = 18 */
(PID.TID 0000.0001)                 1.695000000000000E+01,      /* K = 19 */
(PID.TID 0000.0001)                 1.673000000000000E+01,      /* K = 20 */
(PID.TID 0000.0001)                 1.652000000000000E+01,      /* K = 21 */
(PID.TID 0000.0001)                 1.631000000000000E+01,      /* K = 22 */
(PID.TID 0000.0001)                 1.610000000000000E+01,      /* K = 23 */
(PID.TID 0000.0001)                 1.589000000000000E+01,      /* K = 24 */
(PID.TID 0000.0001)                 1.569000000000000E+01,      /* K = 25 */
(PID.TID 0000.0001)                 1.549000000000000E+01,      /* K = 26 */
(PID.TID 0000.0001)                 1.528000000000000E+01,      /* K = 27 */
(PID.TID 0000.0001)                 1.508000000000000E+01,      /* K = 28 */
(PID.TID 0000.0001)                 1.488000000000000E+01,      /* K = 29 */
(PID.TID 0000.0001)                 1.467000000000000E+01,      /* K = 30 */
(PID.TID 0000.0001)                 1.447000000000000E+01,      /* K = 31 */
(PID.TID 0000.0001)                 1.425000000000000E+01,      /* K = 32 */
(PID.TID 0000.0001)                 1.403000000000000E+01,      /* K = 33 */
(PID.TID 0000.0001)                 1.380000000000000E+01,      /* K = 34 */
(PID.TID 0000.0001)                 1.355000000000000E+01,      /* K = 35 */
(PID.TID 0000.0001)                 1.329000000000000E+01,      /* K = 36 */
(PID.TID 0000.0001)                 1.301000000000000E+01,      /* K = 37 */
(PID.TID 0000.0001)                 1.273000000000000E+01,      /* K = 38 */
(PID.TID 0000.0001)                 1.242000000000000E+01,      /* K = 39 */
(PID.TID 0000.0001)                 1.211000000000000E+01,      /* K = 40 */
(PID.TID 0000.0001)                 1.178000000000000E+01,      /* K = 41 */
(PID.TID 0000.0001)                 1.143000000000000E+01,      /* K = 42 */
(PID.TID 0000.0001)                 1.107000000000000E+01,      /* K = 43 */
(PID.TID 0000.0001)                 1.070000000000000E+01,      /* K = 44 */
(PID.TID 0000.0001)                 1.031000000000000E+01,      /* K = 45 */
(PID.TID 0000.0001)                 9.930000000000000E+00,      /* K = 46 */
(PID.TID 0000.0001)                 9.529999999999999E+00,      /* K = 47 */
(PID.TID 0000.0001)                 9.109999999999999E+00,      /* K = 48 */
(PID.TID 0000.0001)                 8.710000000000001E+00,      /* K = 49 */
(PID.TID 0000.0001)                 8.289999999999999E+00,      /* K = 50 */
(PID.TID 0000.0001)                 7.890000000000000E+00,      /* K = 51 */
(PID.TID 0000.0001)                 7.510000000000000E+00,      /* K = 52 */
(PID.TID 0000.0001)                 7.130000000000000E+00,      /* K = 53 */
(PID.TID 0000.0001)                 6.780000000000000E+00,      /* K = 54 */
(PID.TID 0000.0001)                 6.440000000000000E+00,      /* K = 55 */
(PID.TID 0000.0001)                 6.110000000000000E+00,      /* K = 56 */
(PID.TID 0000.0001)                 5.810000000000000E+00,      /* K = 57 */
(PID.TID 0000.0001)                 5.510000000000000E+00,      /* K = 58 */
(PID.TID 0000.0001)                 5.230000000000000E+00,      /* K = 59 */
(PID.TID 0000.0001)                 4.970000000000000E+00,      /* K = 60 */
(PID.TID 0000.0001)                 4.730000000000000E+00,      /* K = 61 */
(PID.TID 0000.0001)                 4.510000000000000E+00,      /* K = 62 */
(PID.TID 0000.0001)                 4.300000000000000E+00,      /* K = 63 */
(PID.TID 0000.0001)                 4.110000000000000E+00,      /* K = 64 */
(PID.TID 0000.0001)                 3.940000000000000E+00,      /* K = 65 */
(PID.TID 0000.0001)                 3.780000000000000E+00,      /* K = 66 */
(PID.TID 0000.0001)                 3.630000000000000E+00,      /* K = 67 */
(PID.TID 0000.0001)                 3.500000000000000E+00,      /* K = 68 */
(PID.TID 0000.0001)                 3.380000000000000E+00,      /* K = 69 */
(PID.TID 0000.0001)                 3.250000000000000E+00,      /* K = 70 */
(PID.TID 0000.0001)                 3.140000000000000E+00,      /* K = 71 */
(PID.TID 0000.0001)                 3.040000000000000E+00,      /* K = 72 */
(PID.TID 0000.0001)                 2.940000000000000E+00,      /* K = 73 */
(PID.TID 0000.0001)                 2.830000000000000E+00,      /* K = 74 */
(PID.TID 0000.0001)                 2.740000000000000E+00,      /* K = 75 */
(PID.TID 0000.0001)                 2.640000000000000E+00,      /* K = 76 */
(PID.TID 0000.0001)                 2.540000000000000E+00,      /* K = 77 */
(PID.TID 0000.0001)                 2.450000000000000E+00,      /* K = 78 */
(PID.TID 0000.0001)                 2.360000000000000E+00,      /* K = 79 */
(PID.TID 0000.0001)                 2.270000000000000E+00,      /* K = 80 */
(PID.TID 0000.0001)                 2.190000000000000E+00,      /* K = 81 */
(PID.TID 0000.0001)                 2.100000000000000E+00,      /* K = 82 */
(PID.TID 0000.0001)                 2.030000000000000E+00,      /* K = 83 */
(PID.TID 0000.0001)                 1.950000000000000E+00,      /* K = 84 */
(PID.TID 0000.0001)                 1.860000000000000E+00,      /* K = 85 */
(PID.TID 0000.0001)                 1.780000000000000E+00,      /* K = 86 */
(PID.TID 0000.0001)                 1.700000000000000E+00,      /* K = 87 */
(PID.TID 0000.0001)                 1.630000000000000E+00,      /* K = 88 */
(PID.TID 0000.0001)                 1.550000000000000E+00,      /* K = 89 */
(PID.TID 0000.0001)                 1.480000000000000E+00,      /* K = 90 */
(PID.TID 0000.0001)                 1.410000000000000E+00,      /* K = 91 */
(PID.TID 0000.0001)                 1.340000000000000E+00,      /* K = 92 */
(PID.TID 0000.0001)                 1.270000000000000E+00,      /* K = 93 */
(PID.TID 0000.0001)                 1.200000000000000E+00,      /* K = 94 */
(PID.TID 0000.0001)                 1.130000000000000E+00,      /* K = 95 */
(PID.TID 0000.0001)                 1.060000000000000E+00,      /* K = 96 */
(PID.TID 0000.0001)                 1.000000000000000E+00,      /* K = 97 */
(PID.TID 0000.0001)                 9.600000000000000E-01,      /* K = 98 */
(PID.TID 0000.0001)                 9.300000000000000E-01,      /* K = 99 */
(PID.TID 0000.0001)                 9.100000000000000E-01       /* K =100 */
(PID.TID 0000.0001)     ;
(PID.TID 0000.0001) sRef =   /* Reference salinity profile ( psu ) */
(PID.TID 0000.0001)     6 @  3.484000000000000E+01,             /* K =  1:  6 */
(PID.TID 0000.0001)     3 @  3.485000000000000E+01,             /* K =  7:  9 */
(PID.TID 0000.0001)                 3.486000000000000E+01,      /* K = 10 */
(PID.TID 0000.0001)                 3.487000000000000E+01,      /* K = 11 */
(PID.TID 0000.0001)                 3.488000000000000E+01,      /* K = 12 */
(PID.TID 0000.0001)                 3.490000000000000E+01,      /* K = 13 */
(PID.TID 0000.0001)                 3.491000000000000E+01,      /* K = 14 */
(PID.TID 0000.0001)                 3.493000000000000E+01,      /* K = 15 */
(PID.TID 0000.0001)                 3.495000000000000E+01,      /* K = 16 */
(PID.TID 0000.0001)                 3.496000000000000E+01,      /* K = 17 */
(PID.TID 0000.0001)                 3.498000000000000E+01,      /* K = 18 */
(PID.TID 0000.0001)                 3.499000000000000E+01,      /* K = 19 */
(PID.TID 0000.0001)                 3.500000000000000E+01,      /* K = 20 */
(PID.TID 0000.0001)                 3.501000000000000E+01,      /* K = 21 */
(PID.TID 0000.0001)                 3.502000000000000E+01,      /* K = 22 */
(PID.TID 0000.0001)                 3.503000000000000E+01,      /* K = 23 */
(PID.TID 0000.0001)                 3.504000000000000E+01,      /* K = 24 */
(PID.TID 0000.0001)                 3.505000000000000E+01,      /* K = 25 */
(PID.TID 0000.0001)                 3.506000000000000E+01,      /* K = 26 */
(PID.TID 0000.0001)     7 @  3.507000000000000E+01,             /* K = 27: 33 */
(PID.TID 0000.0001)                 3.506000000000000E+01,      /* K = 34 */
(PID.TID 0000.0001)                 3.505000000000000E+01,      /* K = 35 */
(PID.TID 0000.0001)                 3.504000000000000E+01,      /* K = 36 */
(PID.TID 0000.0001)                 3.503000000000000E+01,      /* K = 37 */
(PID.TID 0000.0001)                 3.502000000000000E+01,      /* K = 38 */
(PID.TID 0000.0001)                 3.501000000000000E+01,      /* K = 39 */
(PID.TID 0000.0001)                 3.499000000000000E+01,      /* K = 40 */
(PID.TID 0000.0001)                 3.497000000000000E+01,      /* K = 41 */
(PID.TID 0000.0001)                 3.495000000000000E+01,      /* K = 42 */
(PID.TID 0000.0001)                 3.492000000000000E+01,      /* K = 43 */
(PID.TID 0000.0001)                 3.490000000000000E+01,      /* K = 44 */
(PID.TID 0000.0001)                 3.487000000000000E+01,      /* K = 45 */
(PID.TID 0000.0001)                 3.484000000000000E+01,      /* K = 46 */
(PID.TID 0000.0001)                 3.481000000000000E+01,      /* K = 47 */
(PID.TID 0000.0001)                 3.478000000000000E+01,      /* K = 48 */
(PID.TID 0000.0001)                 3.475000000000000E+01,      /* K = 49 */
(PID.TID 0000.0001)                 3.472000000000000E+01,      /* K = 50 */
(PID.TID 0000.0001)                 3.469000000000000E+01,      /* K = 51 */
(PID.TID 0000.0001)                 3.467000000000000E+01,      /* K = 52 */
(PID.TID 0000.0001)                 3.465000000000000E+01,      /* K = 53 */
(PID.TID 0000.0001)                 3.462000000000000E+01,      /* K = 54 */
(PID.TID 0000.0001)                 3.461000000000000E+01,      /* K = 55 */
(PID.TID 0000.0001)                 3.460000000000000E+01,      /* K = 56 */
(PID.TID 0000.0001)     2 @  3.459000000000000E+01,             /* K = 57: 58 */
(PID.TID 0000.0001)                 3.458000000000000E+01,      /* K = 59 */
(PID.TID 0000.0001)     2 @  3.459000000000000E+01,             /* K = 60: 61 */
(PID.TID 0000.0001)     2 @  3.460000000000000E+01,             /* K = 62: 63 */
(PID.TID 0000.0001)                 3.461000000000000E+01,      /* K = 64 */
(PID.TID 0000.0001)                 3.462000000000000E+01,      /* K = 65 */
(PID.TID 0000.0001)                 3.463000000000000E+01,      /* K = 66 */
(PID.TID 0000.0001)                 3.464000000000000E+01,      /* K = 67 */
(PID.TID 0000.0001)                 3.465000000000000E+01,      /* K = 68 */
(PID.TID 0000.0001)                 3.466000000000000E+01,      /* K = 69 */
(PID.TID 0000.0001)     2 @  3.467000000000000E+01,             /* K = 70: 71 */
(PID.TID 0000.0001)                 3.468000000000000E+01,      /* K = 72 */
(PID.TID 0000.0001)                 3.469000000000000E+01,      /* K = 73 */
(PID.TID 0000.0001)                 3.470000000000000E+01,      /* K = 74 */
(PID.TID 0000.0001)     2 @  3.471000000000000E+01,             /* K = 75: 76 */
(PID.TID 0000.0001)     2 @  3.472000000000000E+01,             /* K = 77: 78 */
(PID.TID 0000.0001)     3 @  3.473000000000000E+01,             /* K = 79: 81 */
(PID.TID 0000.0001)     4 @  3.474000000000000E+01,             /* K = 82: 85 */
(PID.TID 0000.0001)                 3.475000000000000E+01,      /* K = 86 */
(PID.TID 0000.0001)     8 @  3.474000000000000E+01,             /* K = 87: 94 */
(PID.TID 0000.0001)     6 @  3.473000000000000E+01              /* K = 95:100 */
(PID.TID 0000.0001)     ;
(PID.TID 0000.0001) useStrainTensionVisc= /* Use StrainTension Form of Viscous Operator */
(PID.TID 0000.0001)                   F
(PID.TID 0000.0001)     ;
(PID.TID 0000.0001) useVariableVisc = /* Use variable horizontal viscosity */
(PID.TID 0000.0001)                   T
(PID.TID 0000.0001)     ;
(PID.TID 0000.0001) useHarmonicVisc = /* Use harmonic horizontal viscosity */
(PID.TID 0000.0001)                   F
(PID.TID 0000.0001)     ;
(PID.TID 0000.0001) useBiharmonicVisc= /* Use biharmonic horiz.  viscosity */
(PID.TID 0000.0001)                   T
(PID.TID 0000.0001)     ;
(PID.TID 0000.0001) useSmag3D = /* Use isotropic 3-D Smagorinsky viscosity */
(PID.TID 0000.0001)                   F
(PID.TID 0000.0001)     ;
(PID.TID 0000.0001) viscAh  =   /* Lateral harmonic viscosity ( m^2/s ) */
(PID.TID 0000.0001)                 0.000000000000000E+00
(PID.TID 0000.0001)     ;
(PID.TID 0000.0001) viscAhMax = /* Maximum lateral harmonic viscosity ( m^2/s ) */
(PID.TID 0000.0001)                 1.000000000000000E+21
(PID.TID 0000.0001)     ;
(PID.TID 0000.0001) viscAhGrid = /* Grid dependent lateral harmonic viscosity ( non-dim. ) */
(PID.TID 0000.0001)                 0.000000000000000E+00
(PID.TID 0000.0001)     ;
(PID.TID 0000.0001) useFullLeith = /* Use Full Form of Leith Viscosity on/off flag*/
(PID.TID 0000.0001)                   F
(PID.TID 0000.0001)     ;
(PID.TID 0000.0001) useAreaViscLength = /* Use area for visc length instead of geom. mean*/
(PID.TID 0000.0001)                   T
(PID.TID 0000.0001)     ;
(PID.TID 0000.0001) viscC2leith = /* Leith harmonic visc. factor (on grad(vort),non-dim.) */
(PID.TID 0000.0001)                 0.000000000000000E+00
(PID.TID 0000.0001)     ;
(PID.TID 0000.0001) viscC2leithD = /* Leith harmonic viscosity factor (on grad(div),non-dim.)*/
(PID.TID 0000.0001)                 0.000000000000000E+00
(PID.TID 0000.0001)     ;
(PID.TID 0000.0001) viscC2smag = /* Smagorinsky harmonic viscosity factor (non-dim.) */
(PID.TID 0000.0001)                 0.000000000000000E+00
(PID.TID 0000.0001)     ;
(PID.TID 0000.0001) viscA4  =   /* Lateral biharmonic viscosity ( m^4/s ) */
(PID.TID 0000.0001)                 0.000000000000000E+00
(PID.TID 0000.0001)     ;
(PID.TID 0000.0001) viscA4Max = /* Maximum biharmonic viscosity ( m^2/s ) */
(PID.TID 0000.0001)                 1.000000000000000E+21
(PID.TID 0000.0001)     ;
(PID.TID 0000.0001) viscA4Grid = /* Grid dependent biharmonic viscosity ( non-dim. ) */
(PID.TID 0000.0001)                 0.000000000000000E+00
(PID.TID 0000.0001)     ;
(PID.TID 0000.0001) viscC4leith = /* Leith biharm viscosity factor (on grad(vort), non-dim.)*/
(PID.TID 0000.0001)                 2.000000000000000E+00
(PID.TID 0000.0001)     ;
(PID.TID 0000.0001) viscC4leithD = /* Leith biharm viscosity factor (on grad(div), non-dim.) */
(PID.TID 0000.0001)                 2.000000000000000E+00
(PID.TID 0000.0001)     ;
(PID.TID 0000.0001) viscC4Smag = /* Smagorinsky biharm viscosity factor (non-dim) */
(PID.TID 0000.0001)                 0.000000000000000E+00
(PID.TID 0000.0001)     ;
(PID.TID 0000.0001) no_slip_sides =  /* Viscous BCs: No-slip sides */
(PID.TID 0000.0001)                   T
(PID.TID 0000.0001)     ;
(PID.TID 0000.0001) sideDragFactor = /* side-drag scaling factor (non-dim) */
(PID.TID 0000.0001)                 2.000000000000000E+00
(PID.TID 0000.0001)     ;
(PID.TID 0000.0001) viscArNr = /* vertical profile of vertical viscosity ( m^2/s )*/
(PID.TID 0000.0001)   100 @  5.000000000000000E-04              /* K =  1:100 */
(PID.TID 0000.0001)     ;
(PID.TID 0000.0001) no_slip_bottom =  /* Viscous BCs: No-slip bottom */
(PID.TID 0000.0001)                   T
(PID.TID 0000.0001)     ;
(PID.TID 0000.0001) bottomVisc_pCell = /* Partial-cell in bottom Visc. BC */
(PID.TID 0000.0001)                   F
(PID.TID 0000.0001)     ;
(PID.TID 0000.0001) bottomDragLinear = /* linear bottom-drag coefficient ( m/s ) */
(PID.TID 0000.0001)                 0.000000000000000E+00
(PID.TID 0000.0001)     ;
(PID.TID 0000.0001) bottomDragQuadratic = /* quadratic bottom-drag coefficient (-) */
(PID.TID 0000.0001)                 2.000000000000000E-03
(PID.TID 0000.0001)     ;
(PID.TID 0000.0001) selectBotDragQuadr = /* select quadratic bottom drag options */
(PID.TID 0000.0001)                       0
(PID.TID 0000.0001)     ;
(PID.TID 0000.0001) diffKhT =   /* Laplacian diffusion of heat laterally ( m^2/s ) */
(PID.TID 0000.0001)                 0.000000000000000E+00
(PID.TID 0000.0001)     ;
(PID.TID 0000.0001) diffK4T =   /* Biharmonic diffusion of heat laterally ( m^4/s ) */
(PID.TID 0000.0001)                 0.000000000000000E+00
(PID.TID 0000.0001)     ;
(PID.TID 0000.0001) diffKhS =   /* Laplacian diffusion of salt laterally ( m^2/s ) */
(PID.TID 0000.0001)                 0.000000000000000E+00
(PID.TID 0000.0001)     ;
(PID.TID 0000.0001) diffK4S =   /* Biharmonic diffusion of salt laterally ( m^4/s ) */
(PID.TID 0000.0001)                 0.000000000000000E+00
(PID.TID 0000.0001)     ;
(PID.TID 0000.0001) diffKrNrT = /* vertical profile of vertical diffusion of Temp ( m^2/s )*/
(PID.TID 0000.0001)   100 @  1.000000000000000E-05              /* K =  1:100 */
(PID.TID 0000.0001)     ;
(PID.TID 0000.0001) diffKrNrS = /* vertical profile of vertical diffusion of Salt ( m^2/s )*/
(PID.TID 0000.0001)   100 @  1.000000000000000E-05              /* K =  1:100 */
(PID.TID 0000.0001)     ;
(PID.TID 0000.0001) diffKrBL79surf = /* Surface diffusion for Bryan and Lewis 79 ( m^2/s ) */
(PID.TID 0000.0001)                 0.000000000000000E+00
(PID.TID 0000.0001)     ;
(PID.TID 0000.0001) diffKrBL79deep = /* Deep diffusion for Bryan and Lewis 1979 ( m^2/s ) */
(PID.TID 0000.0001)                 0.000000000000000E+00
(PID.TID 0000.0001)     ;
(PID.TID 0000.0001) diffKrBL79scl = /* Depth scale for Bryan and Lewis 1979 ( m ) */
(PID.TID 0000.0001)                 2.000000000000000E+02
(PID.TID 0000.0001)     ;
(PID.TID 0000.0001) diffKrBL79Ho = /* Turning depth for Bryan and Lewis 1979 ( m ) */
(PID.TID 0000.0001)                -2.000000000000000E+03
(PID.TID 0000.0001)     ;
(PID.TID 0000.0001) ivdc_kappa = /* Implicit Vertical Diffusivity for Convection ( m^2/s) */
(PID.TID 0000.0001)                 0.000000000000000E+00
(PID.TID 0000.0001)     ;
(PID.TID 0000.0001) hMixCriteria=  /* Criteria for mixed-layer diagnostic */
(PID.TID 0000.0001)                -8.000000000000000E-01
(PID.TID 0000.0001)     ;
(PID.TID 0000.0001) dRhoSmall =  /* Parameter for mixed-layer diagnostic */
(PID.TID 0000.0001)                 1.000000000000000E-06
(PID.TID 0000.0001)     ;
(PID.TID 0000.0001) hMixSmooth=  /* Smoothing parameter for mixed-layer diagnostic */
(PID.TID 0000.0001)                 0.000000000000000E+00
(PID.TID 0000.0001)     ;
(PID.TID 0000.0001) eosType =  /* Type of Equation of State */
(PID.TID 0000.0001)               'JMD95Z'
(PID.TID 0000.0001)     ;
(PID.TID 0000.0001) selectP_inEOS_Zc = /* select pressure to use in EOS (0,1,2,3) */
(PID.TID 0000.0001)                       0
(PID.TID 0000.0001)     0= -g*rhoConst*z ; 1= pRef (from tRef,sRef); 2= Hyd P ; 3= Hyd+NH P
(PID.TID 0000.0001)     ;
(PID.TID 0000.0001) HeatCapacity_Cp =  /* Specific heat capacity ( J/kg/K ) */
(PID.TID 0000.0001)                 3.994000000000000E+03
(PID.TID 0000.0001)     ;
(PID.TID 0000.0001) celsius2K = /* 0 degree Celsius converted to Kelvin ( K ) */
(PID.TID 0000.0001)                 2.731500000000000E+02
(PID.TID 0000.0001)     ;
(PID.TID 0000.0001) rhoConst  = /* Reference density (Boussinesq)  ( kg/m^3 ) */
(PID.TID 0000.0001)                 1.029000000000000E+03
(PID.TID 0000.0001)     ;
(PID.TID 0000.0001) rhoFacC = /* normalized Reference density @ cell-Center (-) */
(PID.TID 0000.0001)   100 @  1.000000000000000E+00              /* K =  1:100 */
(PID.TID 0000.0001)     ;
(PID.TID 0000.0001) rhoFacF = /* normalized Reference density @ W-Interface (-) */
(PID.TID 0000.0001)   101 @  1.000000000000000E+00              /* K =  1:101 */
(PID.TID 0000.0001)     ;
(PID.TID 0000.0001) rhoConstFresh = /* Fresh-water reference density ( kg/m^3 ) */
(PID.TID 0000.0001)                 1.000000000000000E+03
(PID.TID 0000.0001)     ;
(PID.TID 0000.0001) gravity =   /* Gravitational acceleration ( m/s^2 ) */
(PID.TID 0000.0001)                 9.810000000000000E+00
(PID.TID 0000.0001)     ;
(PID.TID 0000.0001) gBaro =   /* Barotropic gravity ( m/s^2 ) */
(PID.TID 0000.0001)                 9.810000000000000E+00
(PID.TID 0000.0001)     ;
(PID.TID 0000.0001) gravFacC = /* gravity factor (vs surf.) @ cell-Center (-) */
(PID.TID 0000.0001)   100 @  1.000000000000000E+00              /* K =  1:100 */
(PID.TID 0000.0001)     ;
(PID.TID 0000.0001) gravFacF = /* gravity factor (vs surf.) @ W-Interface (-) */
(PID.TID 0000.0001)   101 @  1.000000000000000E+00              /* K =  1:101 */
(PID.TID 0000.0001)     ;
(PID.TID 0000.0001) rotationPeriod =   /* Rotation Period ( s ) */
(PID.TID 0000.0001)                 8.616400000000000E+04
(PID.TID 0000.0001)     ;
(PID.TID 0000.0001) omega =   /* Angular velocity ( rad/s ) */
(PID.TID 0000.0001)                 7.292123516990375E-05
(PID.TID 0000.0001)     ;
(PID.TID 0000.0001) f0 =   /* Reference coriolis parameter ( 1/s ) */
(PID.TID 0000.0001)                 1.000000000000000E-04
(PID.TID 0000.0001)     ;
(PID.TID 0000.0001) beta =   /* Beta ( 1/(m.s) ) */
(PID.TID 0000.0001)                 9.999999999999999E-12
(PID.TID 0000.0001)     ;
(PID.TID 0000.0001) fPrime =   /* Second coriolis parameter ( 1/s ) */
(PID.TID 0000.0001)                 0.000000000000000E+00
(PID.TID 0000.0001)     ;
(PID.TID 0000.0001) rigidLid =   /* Rigid lid on/off flag */
(PID.TID 0000.0001)                   F
(PID.TID 0000.0001)     ;
(PID.TID 0000.0001) implicitFreeSurface =   /* Implicit free surface on/off flag */
(PID.TID 0000.0001)                   T
(PID.TID 0000.0001)     ;
(PID.TID 0000.0001) freeSurfFac =   /* Implicit free surface factor */
(PID.TID 0000.0001)                 1.000000000000000E+00
(PID.TID 0000.0001)     ;
(PID.TID 0000.0001) implicSurfPress =  /* Surface Pressure implicit factor (0-1)*/
(PID.TID 0000.0001)                 1.000000000000000E+00
(PID.TID 0000.0001)     ;
(PID.TID 0000.0001) implicDiv2DFlow =  /* Barot. Flow Div. implicit factor (0-1)*/
(PID.TID 0000.0001)                 1.000000000000000E+00
(PID.TID 0000.0001)     ;
(PID.TID 0000.0001) uniformLin_PhiSurf = /* use uniform Bo_surf on/off flag*/
(PID.TID 0000.0001)                   T
(PID.TID 0000.0001)     ;
(PID.TID 0000.0001) uniformFreeSurfLev = /* free-surface level-index is uniform */
(PID.TID 0000.0001)                   T
(PID.TID 0000.0001)     ;
(PID.TID 0000.0001) hFacMin =   /* minimum partial cell factor (hFac) */
(PID.TID 0000.0001)                 2.000000000000000E-01
(PID.TID 0000.0001)     ;
(PID.TID 0000.0001) hFacMinDr = /* minimum partial cell thickness ( m) */
(PID.TID 0000.0001)                 5.000000000000000E+00
(PID.TID 0000.0001)     ;
(PID.TID 0000.0001) exactConserv =  /* Exact Volume Conservation on/off flag*/
(PID.TID 0000.0001)                   T
(PID.TID 0000.0001)     ;
(PID.TID 0000.0001) linFSConserveTr = /* Tracer correction for Lin Free Surface on/off flag*/
(PID.TID 0000.0001)                   F
(PID.TID 0000.0001)     ;
(PID.TID 0000.0001) nonlinFreeSurf = /* Non-linear Free Surf. options (-1,0,1,2,3)*/
(PID.TID 0000.0001)                       0
(PID.TID 0000.0001)      -1,0= Off ; 1,2,3= On, 2=+rescale gU,gV, 3=+update cg2d solv.
(PID.TID 0000.0001)     ;
(PID.TID 0000.0001) hFacInf =   /* lower threshold for hFac (nonlinFreeSurf only)*/
(PID.TID 0000.0001)                 2.000000000000000E-01
(PID.TID 0000.0001)     ;
(PID.TID 0000.0001) hFacSup =   /* upper threshold for hFac (nonlinFreeSurf only)*/
(PID.TID 0000.0001)                 2.000000000000000E+00
(PID.TID 0000.0001)     ;
(PID.TID 0000.0001) select_rStar = /* r* Vertical coord. options (=0 r coord.; >0 uses r*)*/
(PID.TID 0000.0001)                       0
(PID.TID 0000.0001)     ;
(PID.TID 0000.0001) useRealFreshWaterFlux = /* Real Fresh Water Flux on/off flag*/
(PID.TID 0000.0001)                   F
(PID.TID 0000.0001)     ;
(PID.TID 0000.0001) temp_EvPrRn = /* Temp. of Evap/Prec/R (UNSET=use local T)(oC)*/
(PID.TID 0000.0001)                 0.000000000000000E+00
(PID.TID 0000.0001)     ;
(PID.TID 0000.0001) salt_EvPrRn = /* Salin. of Evap/Prec/R (UNSET=use local S)(psu)*/
(PID.TID 0000.0001)                 0.000000000000000E+00
(PID.TID 0000.0001)     ;
(PID.TID 0000.0001) selectAddFluid = /* option for mass source/sink of fluid (=0: off) */
(PID.TID 0000.0001)                       0
(PID.TID 0000.0001)     ;
(PID.TID 0000.0001) temp_addMass = /* Temp. of addMass array (UNSET=use local T)(oC)*/
(PID.TID 0000.0001)                 0.000000000000000E+00
(PID.TID 0000.0001)     ;
(PID.TID 0000.0001) salt_addMass = /* Salin. of addMass array (UNSET=use local S)(psu)*/
(PID.TID 0000.0001)                 0.000000000000000E+00
(PID.TID 0000.0001)     ;
(PID.TID 0000.0001) convertFW2Salt = /* convert F.W. Flux to Salt Flux (-1=use local S)(psu)*/
(PID.TID 0000.0001)                -1.000000000000000E+00
(PID.TID 0000.0001)     ;
(PID.TID 0000.0001) use3Dsolver = /* use 3-D pressure solver on/off flag */
(PID.TID 0000.0001)                   F
(PID.TID 0000.0001)     ;
(PID.TID 0000.0001) nonHydrostatic =  /* Non-Hydrostatic on/off flag */
(PID.TID 0000.0001)                   F
(PID.TID 0000.0001)     ;
(PID.TID 0000.0001) nh_Am2 = /* Non-Hydrostatic terms scaling factor */
(PID.TID 0000.0001)                 1.000000000000000E+00
(PID.TID 0000.0001)     ;
(PID.TID 0000.0001) implicitNHPress = /* Non-Hyd Pressure implicit factor (0-1)*/
(PID.TID 0000.0001)                 1.000000000000000E+00
(PID.TID 0000.0001)     ;
(PID.TID 0000.0001) selectNHfreeSurf = /* Non-Hyd (free-)Surface option */
(PID.TID 0000.0001)                       0
(PID.TID 0000.0001)     ;
(PID.TID 0000.0001) quasiHydrostatic = /* Quasi-Hydrostatic on/off flag */
(PID.TID 0000.0001)                   F
(PID.TID 0000.0001)     ;
(PID.TID 0000.0001) calc_wVelocity = /* vertical velocity calculation on/off flag */
(PID.TID 0000.0001)                   T
(PID.TID 0000.0001)     ;
(PID.TID 0000.0001) momStepping =  /* Momentum equation on/off flag */
(PID.TID 0000.0001)                   T
(PID.TID 0000.0001)     ;
(PID.TID 0000.0001) vectorInvariantMomentum= /* Vector-Invariant Momentum on/off */
(PID.TID 0000.0001)                   T
(PID.TID 0000.0001)     ;
(PID.TID 0000.0001) momAdvection =  /* Momentum advection on/off flag */
(PID.TID 0000.0001)                   T
(PID.TID 0000.0001)     ;
(PID.TID 0000.0001) momViscosity =  /* Momentum viscosity on/off flag */
(PID.TID 0000.0001)                   T
(PID.TID 0000.0001)     ;
(PID.TID 0000.0001) momImplVertAdv= /* Momentum implicit vert. advection on/off*/
(PID.TID 0000.0001)                   F
(PID.TID 0000.0001)     ;
(PID.TID 0000.0001) implicitViscosity = /* Implicit viscosity on/off flag */
(PID.TID 0000.0001)                   T
(PID.TID 0000.0001)     ;
(PID.TID 0000.0001) selectImplicitDrag= /* Implicit bot Drag options (0,1,2)*/
(PID.TID 0000.0001)                       0
(PID.TID 0000.0001)     0= Expl. ; 1= Impl. on provis. Vel ; 2= Fully Impl (with surf.P)
(PID.TID 0000.0001)     ;
(PID.TID 0000.0001) metricTerms =  /* metric-Terms on/off flag */
(PID.TID 0000.0001)                   T
(PID.TID 0000.0001)     ;
(PID.TID 0000.0001) useNHMTerms = /* Non-Hydrostatic Metric-Terms on/off */
(PID.TID 0000.0001)                   F
(PID.TID 0000.0001)     ;
(PID.TID 0000.0001) selectCoriMap = /* Coriolis Map options (0,1,2,3)*/
(PID.TID 0000.0001)                       2
(PID.TID 0000.0001)     0= f-Plane ; 1= Beta-Plane ; 2= Spherical ; 3= read from file
(PID.TID 0000.0001)     ;
(PID.TID 0000.0001) use3dCoriolis = /* 3-D Coriolis on/off flag */
(PID.TID 0000.0001)                   F
(PID.TID 0000.0001)     ;
(PID.TID 0000.0001) useCoriolis =  /* Coriolis on/off flag */
(PID.TID 0000.0001)                   T
(PID.TID 0000.0001)     ;
(PID.TID 0000.0001) useCDscheme =  /* CD scheme on/off flag */
(PID.TID 0000.0001)                   F
(PID.TID 0000.0001)     ;
(PID.TID 0000.0001) useEnergyConservingCoriolis= /* Flx-Form Coriolis scheme flag */
(PID.TID 0000.0001)                   F
(PID.TID 0000.0001)     ;
(PID.TID 0000.0001) useJamartWetPoints= /* Coriolis WetPoints method flag */
(PID.TID 0000.0001)                   F
(PID.TID 0000.0001)     ;
(PID.TID 0000.0001) useJamartMomAdv= /* V.I Non-linear terms Jamart flag */
(PID.TID 0000.0001)                   F
(PID.TID 0000.0001)     ;
(PID.TID 0000.0001) useAbsVorticity= /* V.I Works with f+zeta in Coriolis */
(PID.TID 0000.0001)                   F
(PID.TID 0000.0001)     ;
(PID.TID 0000.0001) selectVortScheme= /* V.I Scheme selector for Vorticity-Term */
(PID.TID 0000.0001)                       0
(PID.TID 0000.0001)    = 0 : enstrophy (Shallow-Water Eq.) conserving scheme by Sadourny, JAS 75
(PID.TID 0000.0001)    = 1 : same as 0 with modified hFac
(PID.TID 0000.0001)    = 2 : energy conserving scheme (used by Sadourny in JAS 75 paper)
(PID.TID 0000.0001)    = 3 : energy (general) and enstrophy (2D, nonDiv.) conserving scheme
(PID.TID 0000.0001)          from Sadourny (Burridge & Haseler, ECMWF Rep.4, 1977)
(PID.TID 0000.0001)     ;
(PID.TID 0000.0001) upwindVorticity= /* V.I Upwind bias vorticity flag */
(PID.TID 0000.0001)                   F
(PID.TID 0000.0001)     ;
(PID.TID 0000.0001) highOrderVorticity= /* V.I High order vort. advect. flag */
(PID.TID 0000.0001)                   T
(PID.TID 0000.0001)     ;
(PID.TID 0000.0001) upwindShear= /* V.I Upwind vertical Shear advection flag */
(PID.TID 0000.0001)                   F
(PID.TID 0000.0001)     ;
(PID.TID 0000.0001) selectKEscheme= /* V.I Kinetic Energy scheme selector */
(PID.TID 0000.0001)                       0
(PID.TID 0000.0001)     ;
(PID.TID 0000.0001) momForcing =  /* Momentum forcing on/off flag */
(PID.TID 0000.0001)                   T
(PID.TID 0000.0001)     ;
(PID.TID 0000.0001) momTidalForcing = /* Momentum Tidal forcing on/off flag */
(PID.TID 0000.0001)                   T
(PID.TID 0000.0001)     ;
(PID.TID 0000.0001) momPressureForcing =  /* Momentum pressure term on/off flag */
(PID.TID 0000.0001)                   T
(PID.TID 0000.0001)     ;
(PID.TID 0000.0001) implicitIntGravWave= /* Implicit Internal Gravity Wave flag */
(PID.TID 0000.0001)                   F
(PID.TID 0000.0001)     ;
(PID.TID 0000.0001) staggerTimeStep =    /* Stagger time stepping on/off flag */
(PID.TID 0000.0001)                   T
(PID.TID 0000.0001)     ;
(PID.TID 0000.0001) doResetHFactors = /* reset thickness factors @ each time-step */
(PID.TID 0000.0001)                   F
(PID.TID 0000.0001)     ;
(PID.TID 0000.0001) multiDimAdvection =  /* enable/disable Multi-Dim Advection */
(PID.TID 0000.0001)                   T
(PID.TID 0000.0001)     ;
(PID.TID 0000.0001) useMultiDimAdvec =   /* Multi-Dim Advection is/is-not used */
(PID.TID 0000.0001)                   T
(PID.TID 0000.0001)     ;
(PID.TID 0000.0001) implicitDiffusion = /* Implicit Diffusion on/off flag */
(PID.TID 0000.0001)                   T
(PID.TID 0000.0001)     ;
(PID.TID 0000.0001) tempStepping =  /* Temperature equation on/off flag */
(PID.TID 0000.0001)                   T
(PID.TID 0000.0001)     ;
(PID.TID 0000.0001) tempAdvection = /* Temperature advection on/off flag */
(PID.TID 0000.0001)                   T
(PID.TID 0000.0001)     ;
(PID.TID 0000.0001) tempImplVertAdv = /* Temp. implicit vert. advection on/off */
(PID.TID 0000.0001)                   F
(PID.TID 0000.0001)     ;
(PID.TID 0000.0001) tempForcing  =  /* Temperature forcing on/off flag */
(PID.TID 0000.0001)                   T
(PID.TID 0000.0001)     ;
(PID.TID 0000.0001) doThetaClimRelax = /* apply SST relaxation on/off flag */
(PID.TID 0000.0001)                   F
(PID.TID 0000.0001)     ;
(PID.TID 0000.0001) tempIsActiveTr = /* Temp. is a dynamically Active Tracer */
(PID.TID 0000.0001)                   T
(PID.TID 0000.0001)     ;
(PID.TID 0000.0001) saltStepping =  /* Salinity equation on/off flag */
(PID.TID 0000.0001)                   T
(PID.TID 0000.0001)     ;
(PID.TID 0000.0001) saltAdvection = /* Salinity advection on/off flag */
(PID.TID 0000.0001)                   T
(PID.TID 0000.0001)     ;
(PID.TID 0000.0001) saltImplVertAdv = /* Sali. implicit vert. advection on/off */
(PID.TID 0000.0001)                   F
(PID.TID 0000.0001)     ;
(PID.TID 0000.0001) saltForcing  =  /* Salinity forcing on/off flag */
(PID.TID 0000.0001)                   T
(PID.TID 0000.0001)     ;
(PID.TID 0000.0001) doSaltClimRelax = /* apply SSS relaxation on/off flag */
(PID.TID 0000.0001)                   F
(PID.TID 0000.0001)     ;
(PID.TID 0000.0001) saltIsActiveTr = /* Salt  is a dynamically Active Tracer */
(PID.TID 0000.0001)                   T
(PID.TID 0000.0001)     ;
(PID.TID 0000.0001)  readBinaryPrec = /* Precision used for reading binary files */
(PID.TID 0000.0001)                      32
(PID.TID 0000.0001)     ;
(PID.TID 0000.0001) writeBinaryPrec = /* Precision used for writing binary files */
(PID.TID 0000.0001)                      32
(PID.TID 0000.0001)     ;
(PID.TID 0000.0001)  rwSuffixType =   /* select format of mds file suffix */
(PID.TID 0000.0001)                       0
(PID.TID 0000.0001)    = 0 : myIter (I10.10) ;   = 1 : 100*myTime (100th sec) ;
(PID.TID 0000.0001)    = 2 : myTime (seconds);   = 3 : myTime/360 (10th of hr);
(PID.TID 0000.0001)    = 4 : myTime/3600 (hours)
(PID.TID 0000.0001)     ;
(PID.TID 0000.0001)  globalFiles = /* write "global" (=not per tile) files */
(PID.TID 0000.0001)                   T
(PID.TID 0000.0001)     ;
(PID.TID 0000.0001)  useSingleCpuIO = /* only master MPI process does I/O */
(PID.TID 0000.0001)                   T
(PID.TID 0000.0001)     ;
(PID.TID 0000.0001)  useSingleCpuInput = /* only master process reads input */
(PID.TID 0000.0001)                   T
(PID.TID 0000.0001)     ;
(PID.TID 0000.0001) /* debLev[*]  : level of debug & auxiliary message printing */
(PID.TID 0000.0001) debLevZero =  0 ; /* level of disabled aux. msg printing */
(PID.TID 0000.0001)    debLevA =  1 ; /* level of minimum  aux. msg printing */
(PID.TID 0000.0001)    debLevB =  2 ; /* level of low aux. print (report read-file opening)*/
(PID.TID 0000.0001)    debLevC =  3 ; /* level of moderate debug prt (most pkgs debug msg) */
(PID.TID 0000.0001)    debLevD =  4 ; /* level of enhanced debug prt (add DEBUG_STATS prt) */
(PID.TID 0000.0001)    debLevE =  5 ; /* level of extensive debug printing */
(PID.TID 0000.0001) debugLevel =  /* select debug printing level */
(PID.TID 0000.0001)                       2
(PID.TID 0000.0001)     ;
(PID.TID 0000.0001)  plotLevel =  /* select PLOT_FIELD printing level */
(PID.TID 0000.0001)                       2
(PID.TID 0000.0001)     ;
(PID.TID 0000.0001) //
(PID.TID 0000.0001) // Elliptic solver(s) paramters ( PARM02 in namelist )
(PID.TID 0000.0001) //
(PID.TID 0000.0001) cg2dMaxIters =   /* Upper limit on 2d con. grad iterations  */
(PID.TID 0000.0001)                    1000
(PID.TID 0000.0001)     ;
(PID.TID 0000.0001) cg2dChkResFreq =   /* 2d con. grad convergence test frequency */
(PID.TID 0000.0001)                       1
(PID.TID 0000.0001)     ;
(PID.TID 0000.0001) cg2dUseMinResSol= /* use cg2d last-iter(=0) / min-resid.(=1) solution */
(PID.TID 0000.0001)                       0
(PID.TID 0000.0001)     ;
(PID.TID 0000.0001) cg2dTargetResidual =   /* 2d con. grad target residual  */
(PID.TID 0000.0001)                 1.000000000000000E-07
(PID.TID 0000.0001)     ;
(PID.TID 0000.0001) cg2dTargetResWunit =   /* CG2d target residual [W units] */
(PID.TID 0000.0001)                 1.000000000000000E-18
(PID.TID 0000.0001)     ;
(PID.TID 0000.0001) cg2dPreCondFreq =   /* Freq. for updating cg2d preconditioner */
(PID.TID 0000.0001)                       1
(PID.TID 0000.0001)     ;
(PID.TID 0000.0001) useSRCGSolver =  /* use single reduction CG solver(s) */
(PID.TID 0000.0001)                   F
(PID.TID 0000.0001)     ;
(PID.TID 0000.0001) printResidualFreq = /* Freq. for printing CG residual */
(PID.TID 0000.0001)                       0
(PID.TID 0000.0001)     ;
(PID.TID 0000.0001) //
(PID.TID 0000.0001) // Time stepping paramters ( PARM03 in namelist )
(PID.TID 0000.0001) //
(PID.TID 0000.0001) deltaTMom =   /* Momentum equation timestep ( s ) */
(PID.TID 0000.0001)                 2.400000000000000E+02
(PID.TID 0000.0001)     ;
(PID.TID 0000.0001) deltaTFreeSurf = /* FreeSurface equation timestep ( s ) */
(PID.TID 0000.0001)                 2.400000000000000E+02
(PID.TID 0000.0001)     ;
(PID.TID 0000.0001) dTtracerLev =  /* Tracer equation timestep ( s ) */
(PID.TID 0000.0001)   100 @  2.400000000000000E+02              /* K =  1:100 */
(PID.TID 0000.0001)     ;
(PID.TID 0000.0001) deltaTClock  =   /* Model clock timestep ( s ) */
(PID.TID 0000.0001)                 2.400000000000000E+02
(PID.TID 0000.0001)     ;
(PID.TID 0000.0001) cAdjFreq =   /* Convective adjustment interval ( s ) */
(PID.TID 0000.0001)                 0.000000000000000E+00
(PID.TID 0000.0001)     ;
(PID.TID 0000.0001) momForcingOutAB = /* =1: take Momentum Forcing out of Adams-Bash. stepping */
(PID.TID 0000.0001)                       1
(PID.TID 0000.0001)     ;
(PID.TID 0000.0001) tracForcingOutAB = /* =1: take T,S,pTr Forcing out of Adams-Bash. stepping */
(PID.TID 0000.0001)                       1
(PID.TID 0000.0001)     ;
(PID.TID 0000.0001) momDissip_In_AB = /* put Dissipation Tendency in Adams-Bash. stepping */
(PID.TID 0000.0001)                   F
(PID.TID 0000.0001)     ;
(PID.TID 0000.0001) doAB_onGtGs = /* apply AB on Tendencies (rather than on T,S)*/
(PID.TID 0000.0001)                   T
(PID.TID 0000.0001)     ;
(PID.TID 0000.0001) abEps =   /* Adams-Bashforth-2 stabilizing weight */
(PID.TID 0000.0001)                 1.000000000000000E-01
(PID.TID 0000.0001)     ;
(PID.TID 0000.0001) applyExchUV_early = /* Apply EXCH to U,V earlier in time-step */
(PID.TID 0000.0001)                   F
(PID.TID 0000.0001)     ;
(PID.TID 0000.0001) pickupStrictlyMatch= /* stop if pickup do not strictly match */
(PID.TID 0000.0001)                   F
(PID.TID 0000.0001)     ;
(PID.TID 0000.0001) nIter0   =   /* Run starting timestep number */
(PID.TID 0000.0001)                       0
(PID.TID 0000.0001)     ;
(PID.TID 0000.0001) nTimeSteps = /* Number of timesteps */
(PID.TID 0000.0001)                      15
(PID.TID 0000.0001)     ;
(PID.TID 0000.0001) nEndIter =   /* Run ending timestep number */
(PID.TID 0000.0001)                      15
(PID.TID 0000.0001)     ;
(PID.TID 0000.0001) baseTime =   /* Model base time ( s ) */
(PID.TID 0000.0001)                 0.000000000000000E+00
(PID.TID 0000.0001)     ;
(PID.TID 0000.0001) startTime =  /* Run start time ( s ) */
(PID.TID 0000.0001)                 0.000000000000000E+00
(PID.TID 0000.0001)     ;
(PID.TID 0000.0001) endTime  =   /* Integration ending time ( s ) */
(PID.TID 0000.0001)                 3.600000000000000E+03
(PID.TID 0000.0001)     ;
(PID.TID 0000.0001) pChkPtFreq = /* Permanent restart/pickup file interval ( s ) */
(PID.TID 0000.0001)                 8.640000000000000E+05
(PID.TID 0000.0001)     ;
(PID.TID 0000.0001) chkPtFreq  = /* Rolling restart/pickup file interval ( s ) */
(PID.TID 0000.0001)                 0.000000000000000E+00
(PID.TID 0000.0001)     ;
(PID.TID 0000.0001) pickup_write_mdsio =   /* Model IO flag. */
(PID.TID 0000.0001)                   T
(PID.TID 0000.0001)     ;
(PID.TID 0000.0001) pickup_read_mdsio =   /* Model IO flag. */
(PID.TID 0000.0001)                   T
(PID.TID 0000.0001)     ;
(PID.TID 0000.0001) writePickupAtEnd =   /* Model IO flag. */
(PID.TID 0000.0001)                   T
(PID.TID 0000.0001)     ;
(PID.TID 0000.0001) dumpFreq =   /* Model state write out interval ( s ). */
(PID.TID 0000.0001)                 0.000000000000000E+00
(PID.TID 0000.0001)     ;
(PID.TID 0000.0001) dumpInitAndLast= /* write out Initial & Last iter. model state */
(PID.TID 0000.0001)                   F
(PID.TID 0000.0001)     ;
(PID.TID 0000.0001) snapshot_mdsio =   /* Model IO flag. */
(PID.TID 0000.0001)                   T
(PID.TID 0000.0001)     ;
(PID.TID 0000.0001) monitorFreq =   /* Monitor output interval ( s ). */
(PID.TID 0000.0001)                 2.400000000000000E+02
(PID.TID 0000.0001)     ;
(PID.TID 0000.0001) monitorSelect = /* select group of variables to monitor */
(PID.TID 0000.0001)                       3
(PID.TID 0000.0001)     ;
(PID.TID 0000.0001) monitor_stdio =   /* Model IO flag. */
(PID.TID 0000.0001)                   T
(PID.TID 0000.0001)     ;
(PID.TID 0000.0001) externForcingPeriod =   /* forcing period (s) */
(PID.TID 0000.0001)                 0.000000000000000E+00
(PID.TID 0000.0001)     ;
(PID.TID 0000.0001) externForcingCycle =   /* period of the cyle (s). */
(PID.TID 0000.0001)                 0.000000000000000E+00
(PID.TID 0000.0001)     ;
(PID.TID 0000.0001) tauThetaClimRelax =   /* relaxation time scale (s) */
(PID.TID 0000.0001)                 0.000000000000000E+00
(PID.TID 0000.0001)     ;
(PID.TID 0000.0001) tauSaltClimRelax =   /* relaxation time scale (s) */
(PID.TID 0000.0001)                 0.000000000000000E+00
(PID.TID 0000.0001)     ;
(PID.TID 0000.0001) latBandClimRelax =   /* max. Lat. where relaxation */
(PID.TID 0000.0001)                 1.800000000000000E+02
(PID.TID 0000.0001)     ;
(PID.TID 0000.0001) //
(PID.TID 0000.0001) // Gridding paramters ( PARM04 in namelist )
(PID.TID 0000.0001) //
(PID.TID 0000.0001) usingCartesianGrid = /* Cartesian coordinates flag ( True/False ) */
(PID.TID 0000.0001)                   F
(PID.TID 0000.0001)     ;
(PID.TID 0000.0001) usingCylindricalGrid = /* Cylindrical coordinates flag ( True/False ) */
(PID.TID 0000.0001)                   F
(PID.TID 0000.0001)     ;
(PID.TID 0000.0001) usingSphericalPolarGrid = /* Spherical coordinates flag ( True/False ) */
(PID.TID 0000.0001)                   T
(PID.TID 0000.0001)     ;
(PID.TID 0000.0001) usingCurvilinearGrid = /* Curvilinear coordinates flag ( True/False ) */
(PID.TID 0000.0001)                   F
(PID.TID 0000.0001)     ;
(PID.TID 0000.0001) useMin4hFacEdges = /* set hFacW,S as minimum of adjacent hFacC factor */
(PID.TID 0000.0001)                   F
(PID.TID 0000.0001)     ;
(PID.TID 0000.0001) interViscAr_pCell = /* account for partial-cell in interior vert. viscosity */
(PID.TID 0000.0001)                   F
(PID.TID 0000.0001)     ;
(PID.TID 0000.0001) interDiffKr_pCell = /* account for partial-cell in interior vert. diffusion */
(PID.TID 0000.0001)                   F
(PID.TID 0000.0001)     ;
(PID.TID 0000.0001) pCellMix_select = /* option to enhance mixing near surface & bottom */
(PID.TID 0000.0001)                       0
(PID.TID 0000.0001)     ;
(PID.TID 0000.0001) selectSigmaCoord = /* Hybrid-Sigma Vert. Coordinate option */
(PID.TID 0000.0001)                       0
(PID.TID 0000.0001)     ;
(PID.TID 0000.0001) rSigmaBnd = /* r/sigma transition ( units of r ==  m ) */
(PID.TID 0000.0001)                 1.234567000000000E+05
(PID.TID 0000.0001)     ;
(PID.TID 0000.0001) rkSign =   /* index orientation relative to vertical coordinate */
(PID.TID 0000.0001)                -1.000000000000000E+00
(PID.TID 0000.0001)     ;
(PID.TID 0000.0001) gravitySign = /* gravity orientation relative to vertical coordinate */
(PID.TID 0000.0001)                -1.000000000000000E+00
(PID.TID 0000.0001)     ;
(PID.TID 0000.0001) seaLev_Z =  /* reference height of sea-level [m] */
(PID.TID 0000.0001)                 0.000000000000000E+00
(PID.TID 0000.0001)     ;
(PID.TID 0000.0001) top_Pres =  /* reference pressure at the top [Pa] */
(PID.TID 0000.0001)                 0.000000000000000E+00
(PID.TID 0000.0001)     ;
(PID.TID 0000.0001) mass2rUnit = /* convert mass per unit area [kg/m2] to r-units [m] */
(PID.TID 0000.0001)                 9.718172983479105E-04
(PID.TID 0000.0001)     ;
(PID.TID 0000.0001) rUnit2mass = /* convert r-units [m] to mass per unit area [kg/m2] */
(PID.TID 0000.0001)                 1.029000000000000E+03
(PID.TID 0000.0001)     ;
(PID.TID 0000.0001) drC =   /* C spacing ( units of r ) */
(PID.TID 0000.0001)                 2.500000000000000E+00,      /* K =  1 */
(PID.TID 0000.0001)    14 @  5.000000000000000E+00,             /* K =  2: 15 */
(PID.TID 0000.0001)                 5.005000000000000E+00,      /* K = 16 */
(PID.TID 0000.0001)                 5.010000000000000E+00,      /* K = 17 */
(PID.TID 0000.0001)                 5.015000000000000E+00,      /* K = 18 */
(PID.TID 0000.0001)                 5.029999999999999E+00,      /* K = 19 */
(PID.TID 0000.0001)                 5.055000000000000E+00,      /* K = 20 */
(PID.TID 0000.0001)                 5.095000000000001E+00,      /* K = 21 */
(PID.TID 0000.0001)                 5.160000000000000E+00,      /* K = 22 */
(PID.TID 0000.0001)                 5.255000000000000E+00,      /* K = 23 */
(PID.TID 0000.0001)                 5.400000000000000E+00,      /* K = 24 */
(PID.TID 0000.0001)                 5.605000000000000E+00,      /* K = 25 */
(PID.TID 0000.0001)                 5.880000000000000E+00,      /* K = 26 */
(PID.TID 0000.0001)                 6.245000000000000E+00,      /* K = 27 */
(PID.TID 0000.0001)                 6.710000000000000E+00,      /* K = 28 */
(PID.TID 0000.0001)                 7.295000000000000E+00,      /* K = 29 */
(PID.TID 0000.0001)                 8.020000000000000E+00,      /* K = 30 */
(PID.TID 0000.0001)                 8.890000000000001E+00,      /* K = 31 */
(PID.TID 0000.0001)                 9.910000000000000E+00,      /* K = 32 */
(PID.TID 0000.0001)                 1.109000000000000E+01,      /* K = 33 */
(PID.TID 0000.0001)                 1.242500000000000E+01,      /* K = 34 */
(PID.TID 0000.0001)                 1.391500000000000E+01,      /* K = 35 */
(PID.TID 0000.0001)                 1.555000000000000E+01,      /* K = 36 */
(PID.TID 0000.0001)                 1.732000000000000E+01,      /* K = 37 */
(PID.TID 0000.0001)                 1.921000000000000E+01,      /* K = 38 */
(PID.TID 0000.0001)                 2.119500000000000E+01,      /* K = 39 */
(PID.TID 0000.0001)                 2.325000000000000E+01,      /* K = 40 */
(PID.TID 0000.0001)                 2.536000000000000E+01,      /* K = 41 */
(PID.TID 0000.0001)                 2.750000000000000E+01,      /* K = 42 */
(PID.TID 0000.0001)                 2.964000000000000E+01,      /* K = 43 */
(PID.TID 0000.0001)                 3.175000000000000E+01,      /* K = 44 */
(PID.TID 0000.0001)                 3.380500000000000E+01,      /* K = 45 */
(PID.TID 0000.0001)                 3.579000000000000E+01,      /* K = 46 */
(PID.TID 0000.0001)                 3.768000000000000E+01,      /* K = 47 */
(PID.TID 0000.0001)                 3.945000000000000E+01,      /* K = 48 */
(PID.TID 0000.0001)                 4.108499999999999E+01,      /* K = 49 */
(PID.TID 0000.0001)                 4.257500000000000E+01,      /* K = 50 */
(PID.TID 0000.0001)                 4.391000000000000E+01,      /* K = 51 */
(PID.TID 0000.0001)                 4.509000000000000E+01,      /* K = 52 */
(PID.TID 0000.0001)                 4.611000000000000E+01,      /* K = 53 */
(PID.TID 0000.0001)                 4.698000000000000E+01,      /* K = 54 */
(PID.TID 0000.0001)                 4.770500000000000E+01,      /* K = 55 */
(PID.TID 0000.0001)                 4.829000000000000E+01,      /* K = 56 */
(PID.TID 0000.0001)                 4.875500000000000E+01,      /* K = 57 */
(PID.TID 0000.0001)                 4.912500000000000E+01,      /* K = 58 */
(PID.TID 0000.0001)                 4.941000000000000E+01,      /* K = 59 */
(PID.TID 0000.0001)                 4.962500000000000E+01,      /* K = 60 */
(PID.TID 0000.0001)                 4.981000000000000E+01,      /* K = 61 */
(PID.TID 0000.0001)                 5.000500000000000E+01,      /* K = 62 */
(PID.TID 0000.0001)                 5.026000000000000E+01,      /* K = 63 */
(PID.TID 0000.0001)                 5.066500000000000E+01,      /* K = 64 */
(PID.TID 0000.0001)                 5.130500000000000E+01,      /* K = 65 */
(PID.TID 0000.0001)                 5.228000000000000E+01,      /* K = 66 */
(PID.TID 0000.0001)                 5.370500000000000E+01,      /* K = 67 */
(PID.TID 0000.0001)                 5.566500000000000E+01,      /* K = 68 */
(PID.TID 0000.0001)                 5.823000000000000E+01,      /* K = 69 */
(PID.TID 0000.0001)                 6.141500000000000E+01,      /* K = 70 */
(PID.TID 0000.0001)                 6.521000000000001E+01,      /* K = 71 */
(PID.TID 0000.0001)                 6.954500000000000E+01,      /* K = 72 */
(PID.TID 0000.0001)                 7.433000000000000E+01,      /* K = 73 */
(PID.TID 0000.0001)                 7.947000000000000E+01,      /* K = 74 */
(PID.TID 0000.0001)                 8.486000000000000E+01,      /* K = 75 */
(PID.TID 0000.0001)                 9.041499999999999E+01,      /* K = 76 */
(PID.TID 0000.0001)                 9.606500000000000E+01,      /* K = 77 */
(PID.TID 0000.0001)                 1.017750000000000E+02,      /* K = 78 */
(PID.TID 0000.0001)                 1.075100000000000E+02,      /* K = 79 */
(PID.TID 0000.0001)                 1.132500000000000E+02,      /* K = 80 */
(PID.TID 0000.0001)                 1.189950000000000E+02,      /* K = 81 */
(PID.TID 0000.0001)                 1.247500000000000E+02,      /* K = 82 */
(PID.TID 0000.0001)                 1.305050000000000E+02,      /* K = 83 */
(PID.TID 0000.0001)                 1.362500000000000E+02,      /* K = 84 */
(PID.TID 0000.0001)                 1.419950000000000E+02,      /* K = 85 */
(PID.TID 0000.0001)                 1.477500000000000E+02,      /* K = 86 */
(PID.TID 0000.0001)                 1.535050000000000E+02,      /* K = 87 */
(PID.TID 0000.0001)                 1.592500000000000E+02,      /* K = 88 */
(PID.TID 0000.0001)                 1.649950000000000E+02,      /* K = 89 */
(PID.TID 0000.0001)                 1.707500000000000E+02,      /* K = 90 */
(PID.TID 0000.0001)                 1.765050000000000E+02,      /* K = 91 */
(PID.TID 0000.0001)                 1.822500000000000E+02,      /* K = 92 */
(PID.TID 0000.0001)                 1.879950000000000E+02,      /* K = 93 */
(PID.TID 0000.0001)                 1.937500000000000E+02,      /* K = 94 */
(PID.TID 0000.0001)                 1.995050000000000E+02,      /* K = 95 */
(PID.TID 0000.0001)                 2.052500000000000E+02,      /* K = 96 */
(PID.TID 0000.0001)                 2.109950000000000E+02,      /* K = 97 */
(PID.TID 0000.0001)                 2.167500000000000E+02,      /* K = 98 */
(PID.TID 0000.0001)                 2.225050000000000E+02,      /* K = 99 */
(PID.TID 0000.0001)                 2.282500000000000E+02,      /* K =100 */
(PID.TID 0000.0001)                 1.155600000000000E+02       /* K =101 */
(PID.TID 0000.0001)     ;
(PID.TID 0000.0001) drF =   /* W spacing ( units of r ) */
(PID.TID 0000.0001)    15 @  5.000000000000000E+00,             /* K =  1: 15 */
(PID.TID 0000.0001)     2 @  5.010000000000000E+00,             /* K = 16: 17 */
(PID.TID 0000.0001)                 5.020000000000000E+00,      /* K = 18 */
(PID.TID 0000.0001)                 5.040000000000000E+00,      /* K = 19 */
(PID.TID 0000.0001)                 5.070000000000000E+00,      /* K = 20 */
(PID.TID 0000.0001)                 5.120000000000000E+00,      /* K = 21 */
(PID.TID 0000.0001)                 5.200000000000000E+00,      /* K = 22 */
(PID.TID 0000.0001)                 5.310000000000000E+00,      /* K = 23 */
(PID.TID 0000.0001)                 5.490000000000000E+00,      /* K = 24 */
(PID.TID 0000.0001)                 5.720000000000000E+00,      /* K = 25 */
(PID.TID 0000.0001)                 6.040000000000000E+00,      /* K = 26 */
(PID.TID 0000.0001)                 6.450000000000000E+00,      /* K = 27 */
(PID.TID 0000.0001)                 6.970000000000000E+00,      /* K = 28 */
(PID.TID 0000.0001)                 7.620000000000000E+00,      /* K = 29 */
(PID.TID 0000.0001)                 8.420000000000000E+00,      /* K = 30 */
(PID.TID 0000.0001)                 9.359999999999999E+00,      /* K = 31 */
(PID.TID 0000.0001)                 1.046000000000000E+01,      /* K = 32 */
(PID.TID 0000.0001)                 1.172000000000000E+01,      /* K = 33 */
(PID.TID 0000.0001)                 1.313000000000000E+01,      /* K = 34 */
(PID.TID 0000.0001)                 1.470000000000000E+01,      /* K = 35 */
(PID.TID 0000.0001)                 1.640000000000000E+01,      /* K = 36 */
(PID.TID 0000.0001)                 1.824000000000000E+01,      /* K = 37 */
(PID.TID 0000.0001)                 2.018000000000000E+01,      /* K = 38 */
(PID.TID 0000.0001)                 2.221000000000000E+01,      /* K = 39 */
(PID.TID 0000.0001)                 2.429000000000000E+01,      /* K = 40 */
(PID.TID 0000.0001)                 2.643000000000000E+01,      /* K = 41 */
(PID.TID 0000.0001)                 2.857000000000000E+01,      /* K = 42 */
(PID.TID 0000.0001)                 3.071000000000000E+01,      /* K = 43 */
(PID.TID 0000.0001)                 3.279000000000000E+01,      /* K = 44 */
(PID.TID 0000.0001)                 3.482000000000000E+01,      /* K = 45 */
(PID.TID 0000.0001)                 3.676000000000000E+01,      /* K = 46 */
(PID.TID 0000.0001)                 3.860000000000000E+01,      /* K = 47 */
(PID.TID 0000.0001)                 4.030000000000000E+01,      /* K = 48 */
(PID.TID 0000.0001)                 4.187000000000000E+01,      /* K = 49 */
(PID.TID 0000.0001)                 4.328000000000000E+01,      /* K = 50 */
(PID.TID 0000.0001)                 4.454000000000000E+01,      /* K = 51 */
(PID.TID 0000.0001)                 4.564000000000000E+01,      /* K = 52 */
(PID.TID 0000.0001)                 4.658000000000000E+01,      /* K = 53 */
(PID.TID 0000.0001)                 4.738000000000000E+01,      /* K = 54 */
(PID.TID 0000.0001)                 4.803000000000000E+01,      /* K = 55 */
(PID.TID 0000.0001)                 4.855000000000000E+01,      /* K = 56 */
(PID.TID 0000.0001)                 4.896000000000000E+01,      /* K = 57 */
(PID.TID 0000.0001)                 4.929000000000000E+01,      /* K = 58 */
(PID.TID 0000.0001)                 4.953000000000000E+01,      /* K = 59 */
(PID.TID 0000.0001)                 4.972000000000000E+01,      /* K = 60 */
(PID.TID 0000.0001)                 4.990000000000000E+01,      /* K = 61 */
(PID.TID 0000.0001)                 5.011000000000000E+01,      /* K = 62 */
(PID.TID 0000.0001)                 5.041000000000000E+01,      /* K = 63 */
(PID.TID 0000.0001)                 5.092000000000000E+01,      /* K = 64 */
(PID.TID 0000.0001)                 5.169000000000000E+01,      /* K = 65 */
(PID.TID 0000.0001)                 5.287000000000000E+01,      /* K = 66 */
(PID.TID 0000.0001)                 5.454000000000000E+01,      /* K = 67 */
(PID.TID 0000.0001)                 5.679000000000000E+01,      /* K = 68 */
(PID.TID 0000.0001)                 5.967000000000000E+01,      /* K = 69 */
(PID.TID 0000.0001)                 6.316000000000000E+01,      /* K = 70 */
(PID.TID 0000.0001)                 6.726000000000001E+01,      /* K = 71 */
(PID.TID 0000.0001)                 7.183000000000000E+01,      /* K = 72 */
(PID.TID 0000.0001)                 7.683000000000000E+01,      /* K = 73 */
(PID.TID 0000.0001)                 8.211000000000000E+01,      /* K = 74 */
(PID.TID 0000.0001)                 8.761000000000000E+01,      /* K = 75 */
(PID.TID 0000.0001)                 9.322000000000000E+01,      /* K = 76 */
(PID.TID 0000.0001)                 9.891000000000000E+01,      /* K = 77 */
(PID.TID 0000.0001)                 1.046400000000000E+02,      /* K = 78 */
(PID.TID 0000.0001)                 1.103800000000000E+02,      /* K = 79 */
(PID.TID 0000.0001)                 1.161200000000000E+02,      /* K = 80 */
(PID.TID 0000.0001)                 1.218700000000000E+02,      /* K = 81 */
(PID.TID 0000.0001)                 1.276300000000000E+02,      /* K = 82 */
(PID.TID 0000.0001)                 1.333800000000000E+02,      /* K = 83 */
(PID.TID 0000.0001)                 1.391200000000000E+02,      /* K = 84 */
(PID.TID 0000.0001)                 1.448700000000000E+02,      /* K = 85 */
(PID.TID 0000.0001)                 1.506300000000000E+02,      /* K = 86 */
(PID.TID 0000.0001)                 1.563800000000000E+02,      /* K = 87 */
(PID.TID 0000.0001)                 1.621200000000000E+02,      /* K = 88 */
(PID.TID 0000.0001)                 1.678700000000000E+02,      /* K = 89 */
(PID.TID 0000.0001)                 1.736300000000000E+02,      /* K = 90 */
(PID.TID 0000.0001)                 1.793800000000000E+02,      /* K = 91 */
(PID.TID 0000.0001)                 1.851200000000000E+02,      /* K = 92 */
(PID.TID 0000.0001)                 1.908700000000000E+02,      /* K = 93 */
(PID.TID 0000.0001)                 1.966300000000000E+02,      /* K = 94 */
(PID.TID 0000.0001)                 2.023800000000000E+02,      /* K = 95 */
(PID.TID 0000.0001)                 2.081200000000000E+02,      /* K = 96 */
(PID.TID 0000.0001)                 2.138700000000000E+02,      /* K = 97 */
(PID.TID 0000.0001)                 2.196300000000000E+02,      /* K = 98 */
(PID.TID 0000.0001)                 2.253800000000000E+02,      /* K = 99 */
(PID.TID 0000.0001)                 2.311200000000000E+02       /* K =100 */
(PID.TID 0000.0001)     ;
(PID.TID 0000.0001) delX = /* U spacing ( m - cartesian, degrees - spherical ) */
(PID.TID 0000.0001)  1815 @  4.166666666666700E-02              /* I =   1:1815 */
(PID.TID 0000.0001)     ;
(PID.TID 0000.0001) delY = /* V spacing ( m - cartesian, degrees - spherical ) */
(PID.TID 0000.0001)                 3.417015075683594E-02,      /* J =  1 */
(PID.TID 0000.0001)                 3.416061401367188E-02,      /* J =  2 */
(PID.TID 0000.0001)                 3.415107727050781E-02,      /* J =  3 */
(PID.TID 0000.0001)      . . .
(PID.TID 0000.0001)                 3.279495239257812E-02,      /* J =131 */
(PID.TID 0000.0001)                 3.278350830078125E-02,      /* J =132 */
(PID.TID 0000.0001)                 3.277397155761719E-02,      /* J =133 */
(PID.TID 0000.0001)                 3.276252746582031E-02,      /* J =134 */
(PID.TID 0000.0001)                 3.275299072265625E-02,      /* J =135 */
(PID.TID 0000.0001)                 3.273963928222656E-02,      /* J =136 */
(PID.TID 0000.0001)      . . .
(PID.TID 0000.0001)                 3.129959106445312E-02,      /* J =264 */
(PID.TID 0000.0001)                 3.128814697265625E-02,      /* J =265 */
(PID.TID 0000.0001)                 3.127288818359375E-02,      /* J =266 */
(PID.TID 0000.0001)                 3.126525878906250E-02,      /* J =267 */
(PID.TID 0000.0001)                 3.125000000000000E-02,      /* J =268 */
(PID.TID 0000.0001)                 3.124237060546875E-02,      /* J =269 */
(PID.TID 0000.0001)      . . .
(PID.TID 0000.0001)                 2.974700927734375E-02,      /* J =397 */
(PID.TID 0000.0001)                 2.973175048828125E-02,      /* J =398 */
(PID.TID 0000.0001)                 2.971649169921875E-02,      /* J =399 */
(PID.TID 0000.0001)                 2.970886230468750E-02,      /* J =400 */
(PID.TID 0000.0001)                 2.969741821289062E-02,      /* J =401 */
(PID.TID 0000.0001)                 2.968597412109375E-02,      /* J =402 */
(PID.TID 0000.0001)      . . .
(PID.TID 0000.0001)                 2.816009521484375E-02,      /* J =530 */
(PID.TID 0000.0001)                 2.815246582031250E-02,      /* J =531 */
(PID.TID 0000.0001)                 2.813720703125000E-02       /* J =532 */
(PID.TID 0000.0001)     ;
(PID.TID 0000.0001) xgOrigin = /* X-axis origin of West  edge (cartesian: m, lat-lon: deg) */
(PID.TID 0000.0001)                -8.158333587646484E+01
(PID.TID 0000.0001)     ;
(PID.TID 0000.0001) ygOrigin = /* Y-axis origin of South edge (cartesian: m, lat-lon: deg) */
(PID.TID 0000.0001)                 2.685529327392578E+01
(PID.TID 0000.0001)     ;
(PID.TID 0000.0001) rSphere =  /* Radius ( ignored - cartesian, m - spherical ) */
(PID.TID 0000.0001)                 6.370000000000000E+06
(PID.TID 0000.0001)     ;
(PID.TID 0000.0001) deepAtmosphere = /* Deep/Shallow Atmosphere flag (True/False) */
(PID.TID 0000.0001)                   F
(PID.TID 0000.0001)     ;
(PID.TID 0000.0001) xC =  /* xC(:,1,:,1) : P-point X coord ( deg. or m if cartesian) */
(PID.TID 0000.0001)                -8.156250254313150E+01,      /* I =  1 */
(PID.TID 0000.0001)                -8.152083587646484E+01,      /* I =  2 */
(PID.TID 0000.0001)                -8.147916920979816E+01,      /* I =  3 */
(PID.TID 0000.0001)      . . .
(PID.TID 0000.0001)                -7.822916920979779E+01,      /* I = 81 */
(PID.TID 0000.0001)                -7.818750254313113E+01,      /* I = 82 */
(PID.TID 0000.0001)                -7.814583587646445E+01,      /* I = 83 */
(PID.TID 0000.0001)                -7.810416920979779E+01,      /* I = 84 */
(PID.TID 0000.0001)                -7.806250254313110E+01,      /* I = 85 */
(PID.TID 0000.0001)                -7.802083587646445E+01,      /* I = 86 */
(PID.TID 0000.0001)      . . .
(PID.TID 0000.0001)                -7.481250254313073E+01,      /* I =163 */
(PID.TID 0000.0001)                -7.477083587646408E+01,      /* I =164 */
(PID.TID 0000.0001)                -7.472916920979739E+01,      /* I =165 */
(PID.TID 0000.0001)                -7.468750254313073E+01,      /* I =166 */
(PID.TID 0000.0001)                -7.464583587646405E+01,      /* I =167 */
(PID.TID 0000.0001)                -7.460416920979739E+01,      /* I =168 */
(PID.TID 0000.0001)      . . .
(PID.TID 0000.0001)                -7.139583587646368E+01,      /* I =245 */
(PID.TID 0000.0001)                -7.135416920979702E+01,      /* I =246 */
(PID.TID 0000.0001)                -7.131250254313034E+01,      /* I =247 */
(PID.TID 0000.0001)                -7.127083587646368E+01,      /* I =248 */
(PID.TID 0000.0001)                -7.122916920979699E+01,      /* I =249 */
(PID.TID 0000.0001)                -7.118750254313034E+01,      /* I =250 */
(PID.TID 0000.0001)      . . .
(PID.TID 0000.0001)                -6.793750254312997E+01,      /* I =328 */
(PID.TID 0000.0001)                -6.789583587646328E+01,      /* I =329 */
(PID.TID 0000.0001)                -6.785416920979662E+01       /* I =330 */
(PID.TID 0000.0001)     ;
(PID.TID 0000.0001) yC =  /* yC(1,:,1,:) : P-point Y coord ( deg. or m if cartesian) */
(PID.TID 0000.0001)                 2.687237834930420E+01,      /* J =  1 */
(PID.TID 0000.0001)                 2.690654373168945E+01,      /* J =  2 */
(PID.TID 0000.0001)                 2.694069957733154E+01,      /* J =  3 */
(PID.TID 0000.0001)                 2.697484493255615E+01,      /* J =  4 */
(PID.TID 0000.0001)                 2.700897979736328E+01,      /* J =  5 */
(PID.TID 0000.0001)                 2.704310512542725E+01,      /* J =  6 */
(PID.TID 0000.0001)                 2.707721996307373E+01,      /* J =  7 */
(PID.TID 0000.0001)                 2.711132431030273E+01,      /* J =  8 */
(PID.TID 0000.0001)                 2.714541912078857E+01,      /* J =  9 */
(PID.TID 0000.0001)                 2.717950344085693E+01,      /* J = 10 */
(PID.TID 0000.0001)                 2.721357727050781E+01,      /* J = 11 */
(PID.TID 0000.0001)                 2.724764060974121E+01,      /* J = 12 */
(PID.TID 0000.0001)                 2.728169441223145E+01,      /* J = 13 */
(PID.TID 0000.0001)                 2.731573772430420E+01,      /* J = 14 */
(PID.TID 0000.0001)                 2.734977054595947E+01,      /* J = 15 */
(PID.TID 0000.0001)                 2.738379383087158E+01,      /* J = 16 */
(PID.TID 0000.0001)                 2.741780662536621E+01,      /* J = 17 */
(PID.TID 0000.0001)                 2.745180892944336E+01,      /* J = 18 */
(PID.TID 0000.0001)                 2.748580074310303E+01,      /* J = 19 */
(PID.TID 0000.0001)                 2.751978206634521E+01,      /* J = 20 */
(PID.TID 0000.0001)                 2.755375289916992E+01,      /* J = 21 */
(PID.TID 0000.0001)                 2.758771419525146E+01,      /* J = 22 */
(PID.TID 0000.0001)                 2.762166500091553E+01,      /* J = 23 */
(PID.TID 0000.0001)                 2.765560531616211E+01,      /* J = 24 */
(PID.TID 0000.0001)                 2.768953609466553E+01,      /* J = 25 */
(PID.TID 0000.0001)                 2.772345638275146E+01,      /* J = 26 */
(PID.TID 0000.0001)                 2.775736522674561E+01,      /* J = 27 */
(PID.TID 0000.0001)                 2.779126453399658E+01       /* J = 28 */
(PID.TID 0000.0001)     ;
(PID.TID 0000.0001) rcoord = /* P-point R coordinate (  units of r ) */
(PID.TID 0000.0001)                -2.500000000000000E+00,      /* K =  1 */
(PID.TID 0000.0001)                -7.500000000000000E+00,      /* K =  2 */
(PID.TID 0000.0001)                -1.250000000000000E+01,      /* K =  3 */
(PID.TID 0000.0001)                -1.750000000000000E+01,      /* K =  4 */
(PID.TID 0000.0001)                -2.250000000000000E+01,      /* K =  5 */
(PID.TID 0000.0001)                -2.750000000000000E+01,      /* K =  6 */
(PID.TID 0000.0001)                -3.250000000000000E+01,      /* K =  7 */
(PID.TID 0000.0001)                -3.750000000000000E+01,      /* K =  8 */
(PID.TID 0000.0001)                -4.250000000000000E+01,      /* K =  9 */
(PID.TID 0000.0001)                -4.750000000000000E+01,      /* K = 10 */
(PID.TID 0000.0001)                -5.250000000000000E+01,      /* K = 11 */
(PID.TID 0000.0001)                -5.750000000000000E+01,      /* K = 12 */
(PID.TID 0000.0001)                -6.250000000000000E+01,      /* K = 13 */
(PID.TID 0000.0001)                -6.750000000000000E+01,      /* K = 14 */
(PID.TID 0000.0001)                -7.250000000000000E+01,      /* K = 15 */
(PID.TID 0000.0001)                -7.750500000000000E+01,      /* K = 16 */
(PID.TID 0000.0001)                -8.251500000000000E+01,      /* K = 17 */
(PID.TID 0000.0001)                -8.753000000000000E+01,      /* K = 18 */
(PID.TID 0000.0001)                -9.256000000000000E+01,      /* K = 19 */
(PID.TID 0000.0001)                -9.761500000000001E+01,      /* K = 20 */
(PID.TID 0000.0001)                -1.027100000000000E+02,      /* K = 21 */
(PID.TID 0000.0001)                -1.078700000000000E+02,      /* K = 22 */
(PID.TID 0000.0001)                -1.131250000000000E+02,      /* K = 23 */
(PID.TID 0000.0001)                -1.185250000000000E+02,      /* K = 24 */
(PID.TID 0000.0001)                -1.241300000000000E+02,      /* K = 25 */
(PID.TID 0000.0001)                -1.300100000000000E+02,      /* K = 26 */
(PID.TID 0000.0001)                -1.362550000000000E+02,      /* K = 27 */
(PID.TID 0000.0001)                -1.429650000000000E+02,      /* K = 28 */
(PID.TID 0000.0001)                -1.502600000000000E+02,      /* K = 29 */
(PID.TID 0000.0001)                -1.582800000000000E+02,      /* K = 30 */
(PID.TID 0000.0001)                -1.671700000000000E+02,      /* K = 31 */
(PID.TID 0000.0001)                -1.770800000000000E+02,      /* K = 32 */
(PID.TID 0000.0001)                -1.881700000000000E+02,      /* K = 33 */
(PID.TID 0000.0001)                -2.005950000000000E+02,      /* K = 34 */
(PID.TID 0000.0001)                -2.145100000000000E+02,      /* K = 35 */
(PID.TID 0000.0001)                -2.300600000000000E+02,      /* K = 36 */
(PID.TID 0000.0001)                -2.473800000000000E+02,      /* K = 37 */
(PID.TID 0000.0001)                -2.665900000000000E+02,      /* K = 38 */
(PID.TID 0000.0001)                -2.877850000000000E+02,      /* K = 39 */
(PID.TID 0000.0001)                -3.110350000000000E+02,      /* K = 40 */
(PID.TID 0000.0001)                -3.363950000000000E+02,      /* K = 41 */
(PID.TID 0000.0001)                -3.638950000000000E+02,      /* K = 42 */
(PID.TID 0000.0001)                -3.935350000000000E+02,      /* K = 43 */
(PID.TID 0000.0001)                -4.252850000000000E+02,      /* K = 44 */
(PID.TID 0000.0001)                -4.590900000000000E+02,      /* K = 45 */
(PID.TID 0000.0001)                -4.948800000000001E+02,      /* K = 46 */
(PID.TID 0000.0001)                -5.325600000000001E+02,      /* K = 47 */
(PID.TID 0000.0001)                -5.720100000000001E+02,      /* K = 48 */
(PID.TID 0000.0001)                -6.130950000000001E+02,      /* K = 49 */
(PID.TID 0000.0001)                -6.556700000000002E+02,      /* K = 50 */
(PID.TID 0000.0001)                -6.995800000000002E+02,      /* K = 51 */
(PID.TID 0000.0001)                -7.446700000000002E+02,      /* K = 52 */
(PID.TID 0000.0001)                -7.907800000000002E+02,      /* K = 53 */
(PID.TID 0000.0001)                -8.377600000000002E+02,      /* K = 54 */
(PID.TID 0000.0001)                -8.854650000000003E+02,      /* K = 55 */
(PID.TID 0000.0001)                -9.337550000000002E+02,      /* K = 56 */
(PID.TID 0000.0001)                -9.825100000000002E+02,      /* K = 57 */
(PID.TID 0000.0001)                -1.031635000000000E+03,      /* K = 58 */
(PID.TID 0000.0001)                -1.081045000000000E+03,      /* K = 59 */
(PID.TID 0000.0001)                -1.130670000000000E+03,      /* K = 60 */
(PID.TID 0000.0001)                -1.180480000000000E+03,      /* K = 61 */
(PID.TID 0000.0001)                -1.230485000000000E+03,      /* K = 62 */
(PID.TID 0000.0001)                -1.280745000000000E+03,      /* K = 63 */
(PID.TID 0000.0001)                -1.331410000000000E+03,      /* K = 64 */
(PID.TID 0000.0001)                -1.382715000000000E+03,      /* K = 65 */
(PID.TID 0000.0001)                -1.434995000000000E+03,      /* K = 66 */
(PID.TID 0000.0001)                -1.488700000000000E+03,      /* K = 67 */
(PID.TID 0000.0001)                -1.544365000000000E+03,      /* K = 68 */
(PID.TID 0000.0001)                -1.602595000000000E+03,      /* K = 69 */
(PID.TID 0000.0001)                -1.664010000000000E+03,      /* K = 70 */
(PID.TID 0000.0001)                -1.729220000000000E+03,      /* K = 71 */
(PID.TID 0000.0001)                -1.798765000000000E+03,      /* K = 72 */
(PID.TID 0000.0001)                -1.873095000000000E+03,      /* K = 73 */
(PID.TID 0000.0001)                -1.952565000000000E+03,      /* K = 74 */
(PID.TID 0000.0001)                -2.037425000000000E+03,      /* K = 75 */
(PID.TID 0000.0001)                -2.127840000000000E+03,      /* K = 76 */
(PID.TID 0000.0001)                -2.223905000000000E+03,      /* K = 77 */
(PID.TID 0000.0001)                -2.325680000000000E+03,      /* K = 78 */
(PID.TID 0000.0001)                -2.433190000000001E+03,      /* K = 79 */
(PID.TID 0000.0001)                -2.546440000000001E+03,      /* K = 80 */
(PID.TID 0000.0001)                -2.665435000000000E+03,      /* K = 81 */
(PID.TID 0000.0001)                -2.790185000000000E+03,      /* K = 82 */
(PID.TID 0000.0001)                -2.920690000000001E+03,      /* K = 83 */
(PID.TID 0000.0001)                -3.056940000000001E+03,      /* K = 84 */
(PID.TID 0000.0001)                -3.198935000000000E+03,      /* K = 85 */
(PID.TID 0000.0001)                -3.346685000000000E+03,      /* K = 86 */
(PID.TID 0000.0001)                -3.500190000000001E+03,      /* K = 87 */
(PID.TID 0000.0001)                -3.659440000000001E+03,      /* K = 88 */
(PID.TID 0000.0001)                -3.824435000000000E+03,      /* K = 89 */
(PID.TID 0000.0001)                -3.995185000000000E+03,      /* K = 90 */
(PID.TID 0000.0001)                -4.171690000000001E+03,      /* K = 91 */
(PID.TID 0000.0001)                -4.353940000000001E+03,      /* K = 92 */
(PID.TID 0000.0001)                -4.541935000000000E+03,      /* K = 93 */
(PID.TID 0000.0001)                -4.735685000000000E+03,      /* K = 94 */
(PID.TID 0000.0001)                -4.935190000000001E+03,      /* K = 95 */
(PID.TID 0000.0001)                -5.140440000000001E+03,      /* K = 96 */
(PID.TID 0000.0001)                -5.351435000000000E+03,      /* K = 97 */
(PID.TID 0000.0001)                -5.568185000000000E+03,      /* K = 98 */
(PID.TID 0000.0001)                -5.790690000000001E+03,      /* K = 99 */
(PID.TID 0000.0001)                -6.018940000000001E+03       /* K =100 */
(PID.TID 0000.0001)     ;
(PID.TID 0000.0001) rF =   /* W-Interf. R coordinate (  units of r ) */
(PID.TID 0000.0001)                 0.000000000000000E+00,      /* K =  1 */
(PID.TID 0000.0001)                -5.000000000000000E+00,      /* K =  2 */
(PID.TID 0000.0001)                -1.000000000000000E+01,      /* K =  3 */
(PID.TID 0000.0001)                -1.500000000000000E+01,      /* K =  4 */
(PID.TID 0000.0001)                -2.000000000000000E+01,      /* K =  5 */
(PID.TID 0000.0001)                -2.500000000000000E+01,      /* K =  6 */
(PID.TID 0000.0001)                -3.000000000000000E+01,      /* K =  7 */
(PID.TID 0000.0001)                -3.500000000000000E+01,      /* K =  8 */
(PID.TID 0000.0001)                -4.000000000000000E+01,      /* K =  9 */
(PID.TID 0000.0001)                -4.500000000000000E+01,      /* K = 10 */
(PID.TID 0000.0001)                -5.000000000000000E+01,      /* K = 11 */
(PID.TID 0000.0001)                -5.500000000000000E+01,      /* K = 12 */
(PID.TID 0000.0001)                -6.000000000000000E+01,      /* K = 13 */
(PID.TID 0000.0001)                -6.500000000000000E+01,      /* K = 14 */
(PID.TID 0000.0001)                -7.000000000000000E+01,      /* K = 15 */
(PID.TID 0000.0001)                -7.500000000000000E+01,      /* K = 16 */
(PID.TID 0000.0001)                -8.001000000000001E+01,      /* K = 17 */
(PID.TID 0000.0001)                -8.502000000000001E+01,      /* K = 18 */
(PID.TID 0000.0001)                -9.004000000000001E+01,      /* K = 19 */
(PID.TID 0000.0001)                -9.508000000000001E+01,      /* K = 20 */
(PID.TID 0000.0001)                -1.001500000000000E+02,      /* K = 21 */
(PID.TID 0000.0001)                -1.052700000000000E+02,      /* K = 22 */
(PID.TID 0000.0001)                -1.104700000000000E+02,      /* K = 23 */
(PID.TID 0000.0001)                -1.157800000000000E+02,      /* K = 24 */
(PID.TID 0000.0001)                -1.212700000000000E+02,      /* K = 25 */
(PID.TID 0000.0001)                -1.269900000000000E+02,      /* K = 26 */
(PID.TID 0000.0001)                -1.330300000000000E+02,      /* K = 27 */
(PID.TID 0000.0001)                -1.394800000000000E+02,      /* K = 28 */
(PID.TID 0000.0001)                -1.464500000000000E+02,      /* K = 29 */
(PID.TID 0000.0001)                -1.540700000000000E+02,      /* K = 30 */
(PID.TID 0000.0001)                -1.624900000000000E+02,      /* K = 31 */
(PID.TID 0000.0001)                -1.718500000000000E+02,      /* K = 32 */
(PID.TID 0000.0001)                -1.823100000000000E+02,      /* K = 33 */
(PID.TID 0000.0001)                -1.940300000000000E+02,      /* K = 34 */
(PID.TID 0000.0001)                -2.071600000000000E+02,      /* K = 35 */
(PID.TID 0000.0001)                -2.218600000000000E+02,      /* K = 36 */
(PID.TID 0000.0001)                -2.382600000000000E+02,      /* K = 37 */
(PID.TID 0000.0001)                -2.564999999999999E+02,      /* K = 38 */
(PID.TID 0000.0001)                -2.766799999999999E+02,      /* K = 39 */
(PID.TID 0000.0001)                -2.988899999999999E+02,      /* K = 40 */
(PID.TID 0000.0001)                -3.231799999999999E+02,      /* K = 41 */
(PID.TID 0000.0001)                -3.496100000000000E+02,      /* K = 42 */
(PID.TID 0000.0001)                -3.781799999999999E+02,      /* K = 43 */
(PID.TID 0000.0001)                -4.088899999999999E+02,      /* K = 44 */
(PID.TID 0000.0001)                -4.416799999999999E+02,      /* K = 45 */
(PID.TID 0000.0001)                -4.764999999999999E+02,      /* K = 46 */
(PID.TID 0000.0001)                -5.132600000000000E+02,      /* K = 47 */
(PID.TID 0000.0001)                -5.518600000000000E+02,      /* K = 48 */
(PID.TID 0000.0001)                -5.921600000000000E+02,      /* K = 49 */
(PID.TID 0000.0001)                -6.340300000000000E+02,      /* K = 50 */
(PID.TID 0000.0001)                -6.773099999999999E+02,      /* K = 51 */
(PID.TID 0000.0001)                -7.218499999999999E+02,      /* K = 52 */
(PID.TID 0000.0001)                -7.674899999999999E+02,      /* K = 53 */
(PID.TID 0000.0001)                -8.140699999999999E+02,      /* K = 54 */
(PID.TID 0000.0001)                -8.614499999999999E+02,      /* K = 55 */
(PID.TID 0000.0001)                -9.094799999999999E+02,      /* K = 56 */
(PID.TID 0000.0001)                -9.580299999999999E+02,      /* K = 57 */
(PID.TID 0000.0001)                -1.006990000000000E+03,      /* K = 58 */
(PID.TID 0000.0001)                -1.056280000000000E+03,      /* K = 59 */
(PID.TID 0000.0001)                -1.105810000000000E+03,      /* K = 60 */
(PID.TID 0000.0001)                -1.155530000000000E+03,      /* K = 61 */
(PID.TID 0000.0001)                -1.205430000000000E+03,      /* K = 62 */
(PID.TID 0000.0001)                -1.255540000000000E+03,      /* K = 63 */
(PID.TID 0000.0001)                -1.305950000000000E+03,      /* K = 64 */
(PID.TID 0000.0001)                -1.356870000000000E+03,      /* K = 65 */
(PID.TID 0000.0001)                -1.408560000000000E+03,      /* K = 66 */
(PID.TID 0000.0001)                -1.461430000000000E+03,      /* K = 67 */
(PID.TID 0000.0001)                -1.515970000000000E+03,      /* K = 68 */
(PID.TID 0000.0001)                -1.572760000000000E+03,      /* K = 69 */
(PID.TID 0000.0001)                -1.632430000000000E+03,      /* K = 70 */
(PID.TID 0000.0001)                -1.695590000000000E+03,      /* K = 71 */
(PID.TID 0000.0001)                -1.762850000000000E+03,      /* K = 72 */
(PID.TID 0000.0001)                -1.834680000000000E+03,      /* K = 73 */
(PID.TID 0000.0001)                -1.911510000000000E+03,      /* K = 74 */
(PID.TID 0000.0001)                -1.993620000000000E+03,      /* K = 75 */
(PID.TID 0000.0001)                -2.081230000000000E+03,      /* K = 76 */
(PID.TID 0000.0001)                -2.174450000000000E+03,      /* K = 77 */
(PID.TID 0000.0001)                -2.273360000000000E+03,      /* K = 78 */
(PID.TID 0000.0001)                -2.378000000000000E+03,      /* K = 79 */
(PID.TID 0000.0001)                -2.488380000000000E+03,      /* K = 80 */
(PID.TID 0000.0001)                -2.604500000000000E+03,      /* K = 81 */
(PID.TID 0000.0001)                -2.726369999999999E+03,      /* K = 82 */
(PID.TID 0000.0001)                -2.854000000000000E+03,      /* K = 83 */
(PID.TID 0000.0001)                -2.987380000000000E+03,      /* K = 84 */
(PID.TID 0000.0001)                -3.126500000000000E+03,      /* K = 85 */
(PID.TID 0000.0001)                -3.271369999999999E+03,      /* K = 86 */
(PID.TID 0000.0001)                -3.422000000000000E+03,      /* K = 87 */
(PID.TID 0000.0001)                -3.578380000000000E+03,      /* K = 88 */
(PID.TID 0000.0001)                -3.740500000000000E+03,      /* K = 89 */
(PID.TID 0000.0001)                -3.908369999999999E+03,      /* K = 90 */
(PID.TID 0000.0001)                -4.082000000000000E+03,      /* K = 91 */
(PID.TID 0000.0001)                -4.261379999999999E+03,      /* K = 92 */
(PID.TID 0000.0001)                -4.446499999999999E+03,      /* K = 93 */
(PID.TID 0000.0001)                -4.637369999999999E+03,      /* K = 94 */
(PID.TID 0000.0001)                -4.833999999999999E+03,      /* K = 95 */
(PID.TID 0000.0001)                -5.036379999999999E+03,      /* K = 96 */
(PID.TID 0000.0001)                -5.244499999999999E+03,      /* K = 97 */
(PID.TID 0000.0001)                -5.458369999999999E+03,      /* K = 98 */
(PID.TID 0000.0001)                -5.677999999999999E+03,      /* K = 99 */
(PID.TID 0000.0001)                -5.903379999999999E+03,      /* K =100 */
(PID.TID 0000.0001)                -6.134499999999999E+03       /* K =101 */
(PID.TID 0000.0001)     ;
(PID.TID 0000.0001) deepFacC = /* deep-model grid factor @ cell-Center (-) */
(PID.TID 0000.0001)   100 @  1.000000000000000E+00              /* K =  1:100 */
(PID.TID 0000.0001)     ;
(PID.TID 0000.0001) deepFacF = /* deep-model grid factor @ W-Interface (-) */
(PID.TID 0000.0001)   101 @  1.000000000000000E+00              /* K =  1:101 */
(PID.TID 0000.0001)     ;
(PID.TID 0000.0001) rVel2wUnit = /* convert units: rVel -> wSpeed (=1 if z-coord)*/
(PID.TID 0000.0001)   101 @  1.000000000000000E+00              /* K =  1:101 */
(PID.TID 0000.0001)     ;
(PID.TID 0000.0001) wUnit2rVel = /* convert units: wSpeed -> rVel (=1 if z-coord)*/
(PID.TID 0000.0001)   101 @  1.000000000000000E+00              /* K =  1:101 */
(PID.TID 0000.0001)     ;
(PID.TID 0000.0001) dBdrRef = /* Vertical grad. of reference buoyancy [(m/s/r)^2] */
(PID.TID 0000.0001)     5 @  0.000000000000000E+00,             /* K =  1:  5 */
(PID.TID 0000.0001)                 9.694282843778342E-06,      /* K =  6 */
(PID.TID 0000.0001)                 2.426513223807763E-05,      /* K =  7 */
(PID.TID 0000.0001)                 1.452975530153167E-05,      /* K =  8 */
(PID.TID 0000.0001)                 9.681498625854328E-06,      /* K =  9 */
(PID.TID 0000.0001)                 4.842099844624020E-05,      /* K = 10 */
(PID.TID 0000.0001)                 6.280856330023614E-05,      /* K = 11 */
(PID.TID 0000.0001)                 8.185617076656702E-05,      /* K = 12 */
(PID.TID 0000.0001)                 1.295252644691406E-04,      /* K = 13 */
(PID.TID 0000.0001)                 1.095351351384002E-04,      /* K = 14 */
(PID.TID 0000.0001)                 1.329169312007239E-04,      /* K = 15 */
(PID.TID 0000.0001)                 1.367041979360881E-04,      /* K = 16 */
(PID.TID 0000.0001)                 1.211727126593573E-04,      /* K = 17 */
(PID.TID 0000.0001)                 1.302265701121417E-04,      /* K = 18 */
(PID.TID 0000.0001)                 1.190854314588815E-04,      /* K = 19 */
(PID.TID 0000.0001)                 1.132023267377615E-04,      /* K = 20 */
(PID.TID 0000.0001)                 1.071632265654582E-04,      /* K = 21 */
(PID.TID 0000.0001)                 1.051393672457803E-04,      /* K = 22 */
(PID.TID 0000.0001)                 1.025752720636568E-04,      /* K = 23 */
(PID.TID 0000.0001)                 9.917395824143918E-05,      /* K = 24 */
(PID.TID 0000.0001)                 9.104030067387556E-05,      /* K = 25 */
(PID.TID 0000.0001)                 8.624441260795840E-05,      /* K = 26 */
(PID.TID 0000.0001)                 8.413036901537412E-05,      /* K = 27 */
(PID.TID 0000.0001)                 6.366728012651445E-05,      /* K = 28 */
(PID.TID 0000.0001)                 5.812092618380799E-05,      /* K = 29 */
(PID.TID 0000.0001)                 5.507951137016039E-05,      /* K = 30 */
(PID.TID 0000.0001)                 4.695510592930360E-05,      /* K = 31 */
(PID.TID 0000.0001)                 4.596409715692217E-05,      /* K = 32 */
(PID.TID 0000.0001)                 4.072795425761271E-05,      /* K = 33 */
(PID.TID 0000.0001)                 3.175298295526856E-05,      /* K = 34 */
(PID.TID 0000.0001)                 3.093452381022950E-05,      /* K = 35 */
(PID.TID 0000.0001)                 2.864003459600112E-05,      /* K = 36 */
(PID.TID 0000.0001)                 2.767315329576147E-05,      /* K = 37 */
(PID.TID 0000.0001)                 2.463000191580109E-05,      /* K = 38 */
(PID.TID 0000.0001)                 2.475053767167416E-05,      /* K = 39 */
(PID.TID 0000.0001)                 1.906506350221241E-05,      /* K = 40 */
(PID.TID 0000.0001)                 1.865582618722828E-05,      /* K = 41 */
(PID.TID 0000.0001)                 1.823366094760355E-05,      /* K = 42 */
(PID.TID 0000.0001)                 1.471037885515795E-05,      /* K = 43 */
(PID.TID 0000.0001)                 1.630603945735049E-05,      /* K = 44 */
(PID.TID 0000.0001)                 1.384745352787863E-05,      /* K = 45 */
(PID.TID 0000.0001)                 1.226594411185851E-05,      /* K = 46 */
(PID.TID 0000.0001)                 1.225310460290910E-05,      /* K = 47 */
(PID.TID 0000.0001)                 1.223011113144029E-05,      /* K = 48 */
(PID.TID 0000.0001)                 1.061638239990844E-05,      /* K = 49 */
(PID.TID 0000.0001)                 1.070650633014499E-05,      /* K = 50 */
(PID.TID 0000.0001)                 9.357472423340062E-06,      /* K = 51 */
(PID.TID 0000.0001)                 9.812756875994976E-06,      /* K = 52 */
(PID.TID 0000.0001)                 9.364680965538371E-06,      /* K = 53 */
(PID.TID 0000.0001)                 6.430982300518885E-06,      /* K = 54 */
(PID.TID 0000.0001)                 8.970058816087760E-06,      /* K = 55 */
(PID.TID 0000.0001)                 8.398462027768182E-06,      /* K = 56 */
(PID.TID 0000.0001)                 7.294531901104187E-06,      /* K = 57 */
(PID.TID 0000.0001)                 8.642565592484861E-06,      /* K = 58 */
(PID.TID 0000.0001)                 6.405731826441176E-06,      /* K = 59 */
(PID.TID 0000.0001)                 8.743452988220992E-06,      /* K = 60 */
(PID.TID 0000.0001)                 6.590306221026928E-06,      /* K = 61 */
(PID.TID 0000.0001)                 7.462277694900194E-06,      /* K = 62 */
(PID.TID 0000.0001)                 5.625478499738029E-06,      /* K = 63 */
(PID.TID 0000.0001)                 6.494457456351866E-06,      /* K = 64 */
(PID.TID 0000.0001)                 5.872364624284492E-06,      /* K = 65 */
(PID.TID 0000.0001)                 5.495436518643386E-06,      /* K = 66 */
(PID.TID 0000.0001)                 5.094601592541214E-06,      /* K = 67 */
(PID.TID 0000.0001)                 4.437172619322077E-06,      /* K = 68 */
(PID.TID 0000.0001)                 4.016940542409763E-06,      /* K = 69 */
(PID.TID 0000.0001)                 4.028908121728164E-06,      /* K = 70 */
(PID.TID 0000.0001)                 2.246388502686123E-06,      /* K = 71 */
(PID.TID 0000.0001)                 2.998142894531076E-06,      /* K = 72 */
(PID.TID 0000.0001)                 2.815413573924730E-06,      /* K = 73 */
(PID.TID 0000.0001)                 2.814329879263964E-06,      /* K = 74 */
(PID.TID 0000.0001)                 2.327158902006369E-06,      /* K = 75 */
(PID.TID 0000.0001)                 1.523559191918705E-06,      /* K = 76 */
(PID.TID 0000.0001)                 2.223754279938488E-06,      /* K = 77 */
(PID.TID 0000.0001)                 1.243572598777220E-06,      /* K = 78 */
(PID.TID 0000.0001)                 1.884009398486976E-06,      /* K = 79 */
(PID.TID 0000.0001)                 1.146309977456730E-06,      /* K = 80 */
(PID.TID 0000.0001)                 9.836409573498765E-07,      /* K = 81 */
(PID.TID 0000.0001)                 1.666564082034753E-06,      /* K = 82 */
(PID.TID 0000.0001)                 8.096789666921265E-07,      /* K = 83 */
(PID.TID 0000.0001)                 9.015806361848934E-07,      /* K = 84 */
(PID.TID 0000.0001)                 9.899996711216439E-07,      /* K = 85 */
(PID.TID 0000.0001)                 1.360959195968683E-06,      /* K = 86 */
(PID.TID 0000.0001)                 3.633635105266278E-07,      /* K = 87 */
(PID.TID 0000.0001)                 7.257552276248978E-07,      /* K = 88 */
(PID.TID 0000.0001)                 8.165089567519712E-07,      /* K = 89 */
(PID.TID 0000.0001)                 7.043987264958734E-07,      /* K = 90 */
(PID.TID 0000.0001)                 6.956983617110328E-07,      /* K = 91 */
(PID.TID 0000.0001)                 6.880703959048398E-07,      /* K = 92 */
(PID.TID 0000.0001)                 6.813676413074075E-07,      /* K = 93 */
(PID.TID 0000.0001)                 6.754628223828996E-07,      /* K = 94 */
(PID.TID 0000.0001)                 3.049729588883796E-07,      /* K = 95 */
(PID.TID 0000.0001)                 6.657955553385863E-07,      /* K = 96 */
(PID.TID 0000.0001)                 5.675084375793845E-07,      /* K = 97 */
(PID.TID 0000.0001)                 3.767262833194376E-07,      /* K = 98 */
(PID.TID 0000.0001)                 2.816808424830599E-07,      /* K = 99 */
(PID.TID 0000.0001)                 1.873891169846885E-07       /* K =100 */
(PID.TID 0000.0001)     ;
(PID.TID 0000.0001) rotateGrid = /* use rotated grid ( True/False ) */
(PID.TID 0000.0001)                   F
(PID.TID 0000.0001)     ;
(PID.TID 0000.0001) phiEuler = /* Euler angle, rotation about original z-coordinate [rad] */
(PID.TID 0000.0001)                 0.000000000000000E+00
(PID.TID 0000.0001)     ;
(PID.TID 0000.0001) thetaEuler = /* Euler angle, rotation about new x-coordinate [rad] */
(PID.TID 0000.0001)                 0.000000000000000E+00
(PID.TID 0000.0001)     ;
(PID.TID 0000.0001) psiEuler = /* Euler angle, rotation about new z-coordinate [rad] */
(PID.TID 0000.0001)                 0.000000000000000E+00
(PID.TID 0000.0001)     ;
(PID.TID 0000.0001) dxF =  /* dxF(:,1,:,1) ( units: m ) */
(PID.TID 0000.0001)   330 @  4.132168078704865E+03              /* I =  1:330 */
(PID.TID 0000.0001)     ;
(PID.TID 0000.0001) dxF =  /* dxF(1,:,1,:) ( units: m ) */
(PID.TID 0000.0001)                 4.132168078704865E+03,      /* J =  1 */
(PID.TID 0000.0001)                 4.130918776160077E+03,      /* J =  2 */
(PID.TID 0000.0001)                 4.129668354115694E+03,      /* J =  3 */
(PID.TID 0000.0001)                 4.128416849220377E+03,      /* J =  4 */
(PID.TID 0000.0001)                 4.127164263270209E+03,      /* J =  5 */
(PID.TID 0000.0001)                 4.125910563003906E+03,      /* J =  6 */
(PID.TID 0000.0001)                 4.124655785191007E+03,      /* J =  7 */
(PID.TID 0000.0001)                 4.123399931625523E+03,      /* J =  8 */
(PID.TID 0000.0001)                 4.122142968921520E+03,      /* J =  9 */
(PID.TID 0000.0001)                 4.120884933969184E+03,      /* J = 10 */
(PID.TID 0000.0001)                 4.119625828560444E+03,      /* J = 11 */
(PID.TID 0000.0001)                 4.118365654486509E+03,      /* J = 12 */
(PID.TID 0000.0001)                 4.117104378195548E+03,      /* J = 13 */
(PID.TID 0000.0001)                 4.115842036738223E+03,      /* J = 14 */
(PID.TID 0000.0001)                 4.114578631903650E+03,      /* J = 15 */
(PID.TID 0000.0001)                 4.113314130015837E+03,      /* J = 16 */
(PID.TID 0000.0001)                 4.112048568245555E+03,      /* J = 17 */
(PID.TID 0000.0001)                 4.110781948379812E+03,      /* J = 18 */
(PID.TID 0000.0001)                 4.109514272204890E+03,      /* J = 19 */
(PID.TID 0000.0001)                 4.108245541506343E+03,      /* J = 20 */
(PID.TID 0000.0001)                 4.106975758068988E+03,      /* J = 21 */
(PID.TID 0000.0001)                 4.105704887969090E+03,      /* J = 22 */
(PID.TID 0000.0001)                 4.104432968616856E+03,      /* J = 23 */
(PID.TID 0000.0001)                 4.103160001794981E+03,      /* J = 24 */
(PID.TID 0000.0001)                 4.101885953456212E+03,      /* J = 25 */
(PID.TID 0000.0001)                 4.100610861130162E+03,      /* J = 26 */
(PID.TID 0000.0001)                 4.099334762507415E+03,      /* J = 27 */
(PID.TID 0000.0001)                 4.098057587588119E+03       /* J = 28 */
(PID.TID 0000.0001)     ;
(PID.TID 0000.0001) dyF =  /* dyF(:,1,:,1) ( units: m ) */
(PID.TID 0000.0001)   330 @  3.798951025203276E+03              /* I =  1:330 */
(PID.TID 0000.0001)     ;
(PID.TID 0000.0001) dyF =  /* dyF(1,:,1,:) ( units: m ) */
(PID.TID 0000.0001)                 3.798951025203276E+03,      /* J =  1 */
(PID.TID 0000.0001)                 3.797890754194288E+03,      /* J =  2 */
(PID.TID 0000.0001)                 3.796830483185300E+03,      /* J =  3 */
(PID.TID 0000.0001)                 3.795558157974515E+03,      /* J =  4 */
(PID.TID 0000.0001)                 3.794497886965527E+03,      /* J =  5 */
(PID.TID 0000.0001)                 3.793437615956539E+03,      /* J =  6 */
(PID.TID 0000.0001)                 3.792165290745754E+03,      /* J =  7 */
(PID.TID 0000.0001)                 3.791105019736766E+03,      /* J =  8 */
(PID.TID 0000.0001)                 3.790044748727778E+03,      /* J =  9 */
(PID.TID 0000.0001)                 3.788772423516993E+03,      /* J = 10 */
(PID.TID 0000.0001)                 3.787712152508005E+03,      /* J = 11 */
(PID.TID 0000.0001)                 3.786439827297219E+03,      /* J = 12 */
(PID.TID 0000.0001)                 3.785591610490029E+03,      /* J = 13 */
(PID.TID 0000.0001)                 3.784107231077447E+03,      /* J = 14 */
(PID.TID 0000.0001)                 3.783259014270256E+03,      /* J = 15 */
(PID.TID 0000.0001)                 3.781986689059471E+03,      /* J = 16 */
(PID.TID 0000.0001)                 3.780926418050483E+03,      /* J = 17 */
(PID.TID 0000.0001)                 3.779654092839698E+03,      /* J = 18 */
(PID.TID 0000.0001)                 3.778593821830710E+03,      /* J = 19 */
(PID.TID 0000.0001)                 3.777321496619924E+03,      /* J = 20 */
(PID.TID 0000.0001)                 3.776261225610937E+03,      /* J = 21 */
(PID.TID 0000.0001)                 3.775200954601949E+03,      /* J = 22 */
(PID.TID 0000.0001)                 3.773928629391164E+03,      /* J = 23 */
(PID.TID 0000.0001)                 3.772868358382176E+03,      /* J = 24 */
(PID.TID 0000.0001)                 3.771808087373188E+03,      /* J = 25 */
(PID.TID 0000.0001)                 3.770535762162403E+03,      /* J = 26 */
(PID.TID 0000.0001)                 3.769263436951617E+03,      /* J = 27 */
(PID.TID 0000.0001)                 3.768415220144427E+03       /* J = 28 */
(PID.TID 0000.0001)     ;
(PID.TID 0000.0001) dxG =  /* dxG(:,1,:,1) ( units: m ) */
(PID.TID 0000.0001)   330 @  4.132792266102490E+03              /* I =  1:330 */
(PID.TID 0000.0001)     ;
(PID.TID 0000.0001) dxG =  /* dxG(1,:,1,:) ( units: m ) */
(PID.TID 0000.0001)                 4.132792266102490E+03,      /* J =  1 */
(PID.TID 0000.0001)                 4.131543523884096E+03,      /* J =  2 */
(PID.TID 0000.0001)                 4.130293661329000E+03,      /* J =  3 */
(PID.TID 0000.0001)                 4.129042680111336E+03,      /* J =  4 */
(PID.TID 0000.0001)                 4.127790651895232E+03,      /* J =  5 */
(PID.TID 0000.0001)                 4.126537508526810E+03,      /* J =  6 */
(PID.TID 0000.0001)                 4.125283251678356E+03,      /* J =  7 */
(PID.TID 0000.0001)                 4.124027953257525E+03,      /* J =  8 */
(PID.TID 0000.0001)                 4.122771544862921E+03,      /* J =  9 */
(PID.TID 0000.0001)                 4.121514028164970E+03,      /* J = 10 */
(PID.TID 0000.0001)                 4.120255475314408E+03,      /* J = 11 */
(PID.TID 0000.0001)                 4.118995817662741E+03,      /* J = 12 */
(PID.TID 0000.0001)                 4.117735127522450E+03,      /* J = 13 */
(PID.TID 0000.0001)                 4.116473265355150E+03,      /* J = 14 */
(PID.TID 0000.0001)                 4.115210445004191E+03,      /* J = 15 */
(PID.TID 0000.0001)                 4.113946455960185E+03,      /* J = 16 */
(PID.TID 0000.0001)                 4.112681441584010E+03,      /* J = 17 */
(PID.TID 0000.0001)                 4.111415332734301E+03,      /* J = 18 */
(PID.TID 0000.0001)                 4.110148202207719E+03,      /* J = 19 */
(PID.TID 0000.0001)                 4.108879980698939E+03,      /* J = 20 */
(PID.TID 0000.0001)                 4.107610741165563E+03,      /* J = 21 */
(PID.TID 0000.0001)                 4.106340414138508E+03,      /* J = 22 */
(PID.TID 0000.0001)                 4.105069001279958E+03,      /* J = 23 */
(PID.TID 0000.0001)                 4.103796575788615E+03,      /* J = 24 */
(PID.TID 0000.0001)                 4.102523067950195E+03,      /* J = 25 */
(PID.TID 0000.0001)                 4.101248479424976E+03,      /* J = 26 */
(PID.TID 0000.0001)                 4.099972883652305E+03,      /* J = 27 */
(PID.TID 0000.0001)                 4.098696282533544E+03       /* J = 28 */
(PID.TID 0000.0001)     ;
(PID.TID 0000.0001) dyG =  /* dyG(:,1,:,1) ( units: m ) */
(PID.TID 0000.0001)   330 @  3.798951025203276E+03              /* I =  1:330 */
(PID.TID 0000.0001)     ;
(PID.TID 0000.0001) dyG =  /* dyG(1,:,1,:) ( units: m ) */
(PID.TID 0000.0001)                 3.798951025203276E+03,      /* J =  1 */
(PID.TID 0000.0001)                 3.797890754194288E+03,      /* J =  2 */
(PID.TID 0000.0001)                 3.796830483185300E+03,      /* J =  3 */
(PID.TID 0000.0001)                 3.795558157974515E+03,      /* J =  4 */
(PID.TID 0000.0001)                 3.794497886965527E+03,      /* J =  5 */
(PID.TID 0000.0001)                 3.793437615956539E+03,      /* J =  6 */
(PID.TID 0000.0001)                 3.792165290745754E+03,      /* J =  7 */
(PID.TID 0000.0001)                 3.791105019736766E+03,      /* J =  8 */
(PID.TID 0000.0001)                 3.790044748727778E+03,      /* J =  9 */
(PID.TID 0000.0001)                 3.788772423516993E+03,      /* J = 10 */
(PID.TID 0000.0001)                 3.787712152508005E+03,      /* J = 11 */
(PID.TID 0000.0001)                 3.786439827297219E+03,      /* J = 12 */
(PID.TID 0000.0001)                 3.785591610490029E+03,      /* J = 13 */
(PID.TID 0000.0001)                 3.784107231077447E+03,      /* J = 14 */
(PID.TID 0000.0001)                 3.783259014270256E+03,      /* J = 15 */
(PID.TID 0000.0001)                 3.781986689059471E+03,      /* J = 16 */
(PID.TID 0000.0001)                 3.780926418050483E+03,      /* J = 17 */
(PID.TID 0000.0001)                 3.779654092839698E+03,      /* J = 18 */
(PID.TID 0000.0001)                 3.778593821830710E+03,      /* J = 19 */
(PID.TID 0000.0001)                 3.777321496619924E+03,      /* J = 20 */
(PID.TID 0000.0001)                 3.776261225610937E+03,      /* J = 21 */
(PID.TID 0000.0001)                 3.775200954601949E+03,      /* J = 22 */
(PID.TID 0000.0001)                 3.773928629391164E+03,      /* J = 23 */
(PID.TID 0000.0001)                 3.772868358382176E+03,      /* J = 24 */
(PID.TID 0000.0001)                 3.771808087373188E+03,      /* J = 25 */
(PID.TID 0000.0001)                 3.770535762162403E+03,      /* J = 26 */
(PID.TID 0000.0001)                 3.769263436951617E+03,      /* J = 27 */
(PID.TID 0000.0001)                 3.768415220144427E+03       /* J = 28 */
(PID.TID 0000.0001)     ;
(PID.TID 0000.0001) dxC =  /* dxC(:,1,:,1) ( units: m ) */
(PID.TID 0000.0001)   330 @  4.132168078704865E+03              /* I =  1:330 */
(PID.TID 0000.0001)     ;
(PID.TID 0000.0001) dxC =  /* dxC(1,:,1,:) ( units: m ) */
(PID.TID 0000.0001)                 4.132168078704865E+03,      /* J =  1 */
(PID.TID 0000.0001)                 4.130918776160077E+03,      /* J =  2 */
(PID.TID 0000.0001)                 4.129668354115694E+03,      /* J =  3 */
(PID.TID 0000.0001)                 4.128416849220377E+03,      /* J =  4 */
(PID.TID 0000.0001)                 4.127164263270209E+03,      /* J =  5 */
(PID.TID 0000.0001)                 4.125910563003906E+03,      /* J =  6 */
(PID.TID 0000.0001)                 4.124655785191007E+03,      /* J =  7 */
(PID.TID 0000.0001)                 4.123399931625523E+03,      /* J =  8 */
(PID.TID 0000.0001)                 4.122142968921520E+03,      /* J =  9 */
(PID.TID 0000.0001)                 4.120884933969184E+03,      /* J = 10 */
(PID.TID 0000.0001)                 4.119625828560444E+03,      /* J = 11 */
(PID.TID 0000.0001)                 4.118365654486509E+03,      /* J = 12 */
(PID.TID 0000.0001)                 4.117104378195548E+03,      /* J = 13 */
(PID.TID 0000.0001)                 4.115842036738223E+03,      /* J = 14 */
(PID.TID 0000.0001)                 4.114578631903650E+03,      /* J = 15 */
(PID.TID 0000.0001)                 4.113314130015837E+03,      /* J = 16 */
(PID.TID 0000.0001)                 4.112048568245555E+03,      /* J = 17 */
(PID.TID 0000.0001)                 4.110781948379812E+03,      /* J = 18 */
(PID.TID 0000.0001)                 4.109514272204890E+03,      /* J = 19 */
(PID.TID 0000.0001)                 4.108245541506343E+03,      /* J = 20 */
(PID.TID 0000.0001)                 4.106975758068988E+03,      /* J = 21 */
(PID.TID 0000.0001)                 4.105704887969090E+03,      /* J = 22 */
(PID.TID 0000.0001)                 4.104432968616856E+03,      /* J = 23 */
(PID.TID 0000.0001)                 4.103160001794981E+03,      /* J = 24 */
(PID.TID 0000.0001)                 4.101885953456212E+03,      /* J = 25 */
(PID.TID 0000.0001)                 4.100610861130162E+03,      /* J = 26 */
(PID.TID 0000.0001)                 4.099334762507415E+03,      /* J = 27 */
(PID.TID 0000.0001)                 4.098057587588119E+03       /* J = 28 */
(PID.TID 0000.0001)     ;
(PID.TID 0000.0001) dyC =  /* dyC(:,1,:,1) ( units: m ) */
(PID.TID 0000.0001)   330 @  3.463587305060435E+03              /* I =  1:330 */
(PID.TID 0000.0001)     ;
(PID.TID 0000.0001) dyC =  /* dyC(1,:,1,:) ( units: m ) */
(PID.TID 0000.0001)                 3.463587305060435E+03,      /* J =  1 */
(PID.TID 0000.0001)                 3.798420889698782E+03,      /* J =  2 */
(PID.TID 0000.0001)                 3.797360618689794E+03,      /* J =  3 */
(PID.TID 0000.0001)                 3.796194320579908E+03,      /* J =  4 */
(PID.TID 0000.0001)                 3.795028022470021E+03,      /* J =  5 */
(PID.TID 0000.0001)                 3.793967751461033E+03,      /* J =  6 */
(PID.TID 0000.0001)                 3.792801453351146E+03,      /* J =  7 */
(PID.TID 0000.0001)                 3.791635155241260E+03,      /* J =  8 */
(PID.TID 0000.0001)                 3.790574884232272E+03,      /* J =  9 */
(PID.TID 0000.0001)                 3.789408586122385E+03,      /* J = 10 */
(PID.TID 0000.0001)                 3.788242288012499E+03,      /* J = 11 */
(PID.TID 0000.0001)                 3.787075989902612E+03,      /* J = 12 */
(PID.TID 0000.0001)                 3.786015718893625E+03,      /* J = 13 */
(PID.TID 0000.0001)                 3.784849420783738E+03,      /* J = 14 */
(PID.TID 0000.0001)                 3.783683122673851E+03,      /* J = 15 */
(PID.TID 0000.0001)                 3.782622851664863E+03,      /* J = 16 */
(PID.TID 0000.0001)                 3.781456553554977E+03,      /* J = 17 */
(PID.TID 0000.0001)                 3.780290255445090E+03,      /* J = 18 */
(PID.TID 0000.0001)                 3.779123957335204E+03,      /* J = 19 */
(PID.TID 0000.0001)                 3.777957659225317E+03,      /* J = 20 */
(PID.TID 0000.0001)                 3.776791361115431E+03,      /* J = 21 */
(PID.TID 0000.0001)                 3.775731090106443E+03,      /* J = 22 */
(PID.TID 0000.0001)                 3.774564791996556E+03,      /* J = 23 */
(PID.TID 0000.0001)                 3.773398493886670E+03,      /* J = 24 */
(PID.TID 0000.0001)                 3.772338222877682E+03,      /* J = 25 */
(PID.TID 0000.0001)                 3.771171924767795E+03,      /* J = 26 */
(PID.TID 0000.0001)                 3.769899599557010E+03,      /* J = 27 */
(PID.TID 0000.0001)                 3.768839328548022E+03       /* J = 28 */
(PID.TID 0000.0001)     ;
(PID.TID 0000.0001) dxV =  /* dxV(:,1,:,1) ( units: m ) */
(PID.TID 0000.0001)   330 @  4.132792266102490E+03              /* I =  1:330 */
(PID.TID 0000.0001)     ;
(PID.TID 0000.0001) dxV =  /* dxV(1,:,1,:) ( units: m ) */
(PID.TID 0000.0001)                 4.132792266102490E+03,      /* J =  1 */
(PID.TID 0000.0001)                 4.131543523884096E+03,      /* J =  2 */
(PID.TID 0000.0001)                 4.130293661329000E+03,      /* J =  3 */
(PID.TID 0000.0001)                 4.129042680111336E+03,      /* J =  4 */
(PID.TID 0000.0001)                 4.127790651895232E+03,      /* J =  5 */
(PID.TID 0000.0001)                 4.126537508526810E+03,      /* J =  6 */
(PID.TID 0000.0001)                 4.125283251678356E+03,      /* J =  7 */
(PID.TID 0000.0001)                 4.124027953257525E+03,      /* J =  8 */
(PID.TID 0000.0001)                 4.122771544862921E+03,      /* J =  9 */
(PID.TID 0000.0001)                 4.121514028164970E+03,      /* J = 10 */
(PID.TID 0000.0001)                 4.120255475314408E+03,      /* J = 11 */
(PID.TID 0000.0001)                 4.118995817662741E+03,      /* J = 12 */
(PID.TID 0000.0001)                 4.117735127522450E+03,      /* J = 13 */
(PID.TID 0000.0001)                 4.116473265355150E+03,      /* J = 14 */
(PID.TID 0000.0001)                 4.115210445004191E+03,      /* J = 15 */
(PID.TID 0000.0001)                 4.113946455960185E+03,      /* J = 16 */
(PID.TID 0000.0001)                 4.112681441584010E+03,      /* J = 17 */
(PID.TID 0000.0001)                 4.111415332734301E+03,      /* J = 18 */
(PID.TID 0000.0001)                 4.110148202207719E+03,      /* J = 19 */
(PID.TID 0000.0001)                 4.108879980698939E+03,      /* J = 20 */
(PID.TID 0000.0001)                 4.107610741165563E+03,      /* J = 21 */
(PID.TID 0000.0001)                 4.106340414138508E+03,      /* J = 22 */
(PID.TID 0000.0001)                 4.105069001279958E+03,      /* J = 23 */
(PID.TID 0000.0001)                 4.103796575788615E+03,      /* J = 24 */
(PID.TID 0000.0001)                 4.102523067950195E+03,      /* J = 25 */
(PID.TID 0000.0001)                 4.101248479424976E+03,      /* J = 26 */
(PID.TID 0000.0001)                 4.099972883652305E+03,      /* J = 27 */
(PID.TID 0000.0001)                 4.098696282533544E+03       /* J = 28 */
(PID.TID 0000.0001)     ;
(PID.TID 0000.0001) dyU =  /* dyU(:,1,:,1) ( units: m ) */
(PID.TID 0000.0001)   330 @  3.463587305060435E+03              /* I =  1:330 */
(PID.TID 0000.0001)     ;
(PID.TID 0000.0001) dyU =  /* dyU(1,:,1,:) ( units: m ) */
(PID.TID 0000.0001)                 3.463587305060435E+03,      /* J =  1 */
(PID.TID 0000.0001)                 3.798420889698782E+03,      /* J =  2 */
(PID.TID 0000.0001)                 3.797360618689794E+03,      /* J =  3 */
(PID.TID 0000.0001)                 3.796194320579908E+03,      /* J =  4 */
(PID.TID 0000.0001)                 3.795028022470021E+03,      /* J =  5 */
(PID.TID 0000.0001)                 3.793967751461033E+03,      /* J =  6 */
(PID.TID 0000.0001)                 3.792801453351146E+03,      /* J =  7 */
(PID.TID 0000.0001)                 3.791635155241260E+03,      /* J =  8 */
(PID.TID 0000.0001)                 3.790574884232272E+03,      /* J =  9 */
(PID.TID 0000.0001)                 3.789408586122385E+03,      /* J = 10 */
(PID.TID 0000.0001)                 3.788242288012499E+03,      /* J = 11 */
(PID.TID 0000.0001)                 3.787075989902612E+03,      /* J = 12 */
(PID.TID 0000.0001)                 3.786015718893625E+03,      /* J = 13 */
(PID.TID 0000.0001)                 3.784849420783738E+03,      /* J = 14 */
(PID.TID 0000.0001)                 3.783683122673851E+03,      /* J = 15 */
(PID.TID 0000.0001)                 3.782622851664863E+03,      /* J = 16 */
(PID.TID 0000.0001)                 3.781456553554977E+03,      /* J = 17 */
(PID.TID 0000.0001)                 3.780290255445090E+03,      /* J = 18 */
(PID.TID 0000.0001)                 3.779123957335204E+03,      /* J = 19 */
(PID.TID 0000.0001)                 3.777957659225317E+03,      /* J = 20 */
(PID.TID 0000.0001)                 3.776791361115431E+03,      /* J = 21 */
(PID.TID 0000.0001)                 3.775731090106443E+03,      /* J = 22 */
(PID.TID 0000.0001)                 3.774564791996556E+03,      /* J = 23 */
(PID.TID 0000.0001)                 3.773398493886670E+03,      /* J = 24 */
(PID.TID 0000.0001)                 3.772338222877682E+03,      /* J = 25 */
(PID.TID 0000.0001)                 3.771171924767795E+03,      /* J = 26 */
(PID.TID 0000.0001)                 3.769899599557010E+03,      /* J = 27 */
(PID.TID 0000.0001)                 3.768839328548022E+03       /* J = 28 */
(PID.TID 0000.0001)     ;
(PID.TID 0000.0001) rA  =  /* rA (:,1,:,1) ( units: m^2 ) */
(PID.TID 0000.0001)   330 @  1.569790392627073E+07              /* I =  1:330 */
(PID.TID 0000.0001)     ;
(PID.TID 0000.0001) rA  =  /* rA (1,:,1,:) ( units: m^2 ) */
(PID.TID 0000.0001)                 1.569790392627073E+07,      /* J =  1 */
(PID.TID 0000.0001)                 1.568877799393386E+07,      /* J =  2 */
(PID.TID 0000.0001)                 1.567965046024477E+07,      /* J =  3 */
(PID.TID 0000.0001)                 1.566964601977351E+07,      /* J =  4 */
(PID.TID 0000.0001)                 1.566051584459966E+07,      /* J =  5 */
(PID.TID 0000.0001)                 1.565138409849535E+07,      /* J =  6 */
(PID.TID 0000.0001)                 1.564137627390480E+07,      /* J =  7 */
(PID.TID 0000.0001)                 1.563224194845815E+07,      /* J =  8 */
(PID.TID 0000.0001)                 1.562310608242249E+07,      /* J =  9 */
(PID.TID 0000.0001)                 1.561309496816712E+07,      /* J = 10 */
(PID.TID 0000.0001)                 1.560395658474481E+07,      /* J = 11 */
(PID.TID 0000.0001)                 1.559394350794555E+07,      /* J = 12 */
(PID.TID 0000.0001)                 1.558567556425542E+07,      /* J = 13 */
(PID.TID 0000.0001)                 1.557478738418195E+07,      /* J = 14 */
(PID.TID 0000.0001)                 1.556651647028628E+07,      /* J = 15 */
(PID.TID 0000.0001)                 1.555649905915226E+07,      /* J = 16 */
(PID.TID 0000.0001)                 1.554735283576100E+07,      /* J = 17 */
(PID.TID 0000.0001)                 1.553733358804201E+07,      /* J = 18 */
(PID.TID 0000.0001)                 1.552818501201680E+07,      /* J = 19 */
(PID.TID 0000.0001)                 1.551816396996124E+07,      /* J = 20 */
(PID.TID 0000.0001)                 1.550901308262007E+07,      /* J = 21 */
(PID.TID 0000.0001)                 1.549986078553674E+07,      /* J = 22 */
(PID.TID 0000.0001)                 1.548983686113863E+07,      /* J = 23 */
(PID.TID 0000.0001)                 1.548068231387437E+07,      /* J = 24 */
(PID.TID 0000.0001)                 1.547152638671146E+07,      /* J = 25 */
(PID.TID 0000.0001)                 1.546149967288220E+07,      /* J = 26 */
(PID.TID 0000.0001)                 1.545147241072469E+07,      /* J = 27 */
(PID.TID 0000.0001)                 1.544318236089779E+07       /* J = 28 */
(PID.TID 0000.0001)     ;
(PID.TID 0000.0001) rAw =  /* rAw(:,1,:,1) ( units: m^2 ) */
(PID.TID 0000.0001)   330 @  1.569790392627073E+07              /* I =  1:330 */
(PID.TID 0000.0001)     ;
(PID.TID 0000.0001) rAw =  /* rAw(1,:,1,:) ( units: m^2 ) */
(PID.TID 0000.0001)                 1.569790392627073E+07,      /* J =  1 */
(PID.TID 0000.0001)                 1.568877799393386E+07,      /* J =  2 */
(PID.TID 0000.0001)                 1.567965046024477E+07,      /* J =  3 */
(PID.TID 0000.0001)                 1.566964601977351E+07,      /* J =  4 */
(PID.TID 0000.0001)                 1.566051584459966E+07,      /* J =  5 */
(PID.TID 0000.0001)                 1.565138409849535E+07,      /* J =  6 */
(PID.TID 0000.0001)                 1.564137627390480E+07,      /* J =  7 */
(PID.TID 0000.0001)                 1.563224194845815E+07,      /* J =  8 */
(PID.TID 0000.0001)                 1.562310608242249E+07,      /* J =  9 */
(PID.TID 0000.0001)                 1.561309496816712E+07,      /* J = 10 */
(PID.TID 0000.0001)                 1.560395658474481E+07,      /* J = 11 */
(PID.TID 0000.0001)                 1.559394350794555E+07,      /* J = 12 */
(PID.TID 0000.0001)                 1.558567556425542E+07,      /* J = 13 */
(PID.TID 0000.0001)                 1.557478738418195E+07,      /* J = 14 */
(PID.TID 0000.0001)                 1.556651647028628E+07,      /* J = 15 */
(PID.TID 0000.0001)                 1.555649905915226E+07,      /* J = 16 */
(PID.TID 0000.0001)                 1.554735283576100E+07,      /* J = 17 */
(PID.TID 0000.0001)                 1.553733358804201E+07,      /* J = 18 */
(PID.TID 0000.0001)                 1.552818501201680E+07,      /* J = 19 */
(PID.TID 0000.0001)                 1.551816396996124E+07,      /* J = 20 */
(PID.TID 0000.0001)                 1.550901308262007E+07,      /* J = 21 */
(PID.TID 0000.0001)                 1.549986078553674E+07,      /* J = 22 */
(PID.TID 0000.0001)                 1.548983686113863E+07,      /* J = 23 */
(PID.TID 0000.0001)                 1.548068231387437E+07,      /* J = 24 */
(PID.TID 0000.0001)                 1.547152638671146E+07,      /* J = 25 */
(PID.TID 0000.0001)                 1.546149967288220E+07,      /* J = 26 */
(PID.TID 0000.0001)                 1.545147241072469E+07,      /* J = 27 */
(PID.TID 0000.0001)                 1.544318236089779E+07       /* J = 28 */
(PID.TID 0000.0001)     ;
(PID.TID 0000.0001) rAs =  /* rAs(:,1,:,1) ( units: m^2 ) */
(PID.TID 0000.0001)   330 @  1.431409585161713E+07              /* I =  1:330 */
(PID.TID 0000.0001)     ;
(PID.TID 0000.0001) rAs =  /* rAs(1,:,1,:) ( units: m^2 ) */
(PID.TID 0000.0001)                 1.431409585161713E+07,      /* J =  1 */
(PID.TID 0000.0001)                 1.569334132646529E+07,      /* J =  2 */
(PID.TID 0000.0001)                 1.568421459236220E+07,      /* J =  3 */
(PID.TID 0000.0001)                 1.567464853779548E+07,      /* J =  4 */
(PID.TID 0000.0001)                 1.566508129518095E+07,      /* J =  5 */
(PID.TID 0000.0001)                 1.565595033345175E+07,      /* J =  6 */
(PID.TID 0000.0001)                 1.564638048044906E+07,      /* J =  7 */
(PID.TID 0000.0001)                 1.563680947081621E+07,      /* J =  8 */
(PID.TID 0000.0001)                 1.562767437398903E+07,      /* J =  9 */
(PID.TID 0000.0001)                 1.561810081601708E+07,      /* J = 10 */
(PID.TID 0000.0001)                 1.560852613273763E+07,      /* J = 11 */
(PID.TID 0000.0001)                 1.559895033469148E+07,      /* J = 12 */
(PID.TID 0000.0001)                 1.558980995703406E+07,      /* J = 13 */
(PID.TID 0000.0001)                 1.558023169331755E+07,      /* J = 14 */
(PID.TID 0000.0001)                 1.557065234602267E+07,      /* J = 15 */
(PID.TID 0000.0001)                 1.556150804841762E+07,      /* J = 16 */
(PID.TID 0000.0001)                 1.555192629706736E+07,      /* J = 17 */
(PID.TID 0000.0001)                 1.554234349323534E+07,      /* J = 18 */
(PID.TID 0000.0001)                 1.553275964738865E+07,      /* J = 19 */
(PID.TID 0000.0001)                 1.552317476996653E+07,      /* J = 20 */
(PID.TID 0000.0001)                 1.551358887140660E+07,      /* J = 21 */
(PID.TID 0000.0001)                 1.550443727811980E+07,      /* J = 22 */
(PID.TID 0000.0001)                 1.549484909883272E+07,      /* J = 23 */
(PID.TID 0000.0001)                 1.548525992931114E+07,      /* J = 24 */
(PID.TID 0000.0001)                 1.547610469102710E+07,      /* J = 25 */
(PID.TID 0000.0001)                 1.546651330181840E+07,      /* J = 26 */
(PID.TID 0000.0001)                 1.545648631260958E+07,      /* J = 27 */
(PID.TID 0000.0001)                 1.544732779090657E+07       /* J = 28 */
(PID.TID 0000.0001)     ;
(PID.TID 0000.0001) globalArea = /* Integrated horizontal Area (m^2) */
(PID.TID 0000.0001)                 1.130146430983160E+13
(PID.TID 0000.0001)     ;
(PID.TID 0000.0001) // =======================================================
(PID.TID 0000.0001) // End of Model config. summary
(PID.TID 0000.0001) // =======================================================
(PID.TID 0000.0001) 
(PID.TID 0000.0001) == Packages configuration : Check & print summary ==
(PID.TID 0000.0001) 
(PID.TID 0000.0001) OBCS_CHECK: #define ALLOW_OBCS
(PID.TID 0000.0001) OBCS_CHECK: start summary:
(PID.TID 0000.0001) useOBCSprescribe = /* prescribe OB values */
(PID.TID 0000.0001)                   T
(PID.TID 0000.0001)     ;
(PID.TID 0000.0001) useOBCSbalance = /* balance the flow through OB */
(PID.TID 0000.0001)                   T
(PID.TID 0000.0001)     ;
(PID.TID 0000.0001) OBCS_balanceFacN = /* Northern OB Factor for balancing OB flow [-] */
(PID.TID 0000.0001)                -1.000000000000000E+00
(PID.TID 0000.0001)     ;
(PID.TID 0000.0001) OBCS_balanceFacS = /* Southern OB Factor for balancing OB flow [-] */
(PID.TID 0000.0001)                -1.000000000000000E+00
(PID.TID 0000.0001)     ;
(PID.TID 0000.0001) OBCS_balanceFacE = /* Eastern  OB Factor for balancing OB flow [-] */
(PID.TID 0000.0001)                 1.000000000000000E+00
(PID.TID 0000.0001)     ;
(PID.TID 0000.0001) OBCS_balanceFacW = /* Western  OB Factor for balancing OB flow [-] */
(PID.TID 0000.0001)                 1.000000000000000E+00
(PID.TID 0000.0001)     ;
(PID.TID 0000.0001) OBCS_uvApplyFac = /* Factor to apply to U,V 2nd column/row */
(PID.TID 0000.0001)                 1.000000000000000E+00
(PID.TID 0000.0001)     ;
(PID.TID 0000.0001) OBCS_u1_adv_T = /* Temp uses upwind adv-scheme @ OB */
(PID.TID 0000.0001)                       1
(PID.TID 0000.0001)     ;
(PID.TID 0000.0001) OBCS_u1_adv_S = /* Salt uses upwind adv-scheme @ OB */
(PID.TID 0000.0001)                       1
(PID.TID 0000.0001)     ;
(PID.TID 0000.0001) OBCS_monitorFreq = /* monitor output frequency [s] */
(PID.TID 0000.0001)                 2.400000000000000E+02
(PID.TID 0000.0001)     ;
(PID.TID 0000.0001) OBCS_monSelect = /* select group of variables to monitor */
(PID.TID 0000.0001)                       3
(PID.TID 0000.0001)     ;
(PID.TID 0000.0001) useOBCStides = /* apply tidal forcing through OB */
(PID.TID 0000.0001)                   T
(PID.TID 0000.0001)     ;
(PID.TID 0000.0001) tidalPeriod = /* (s) */
(PID.TID 0000.0001)                 4.471416500000000E+04,      /* I =  1 */
(PID.TID 0000.0001)                 4.320000100000000E+04,      /* I =  2 */
(PID.TID 0000.0001)                 4.557005400000000E+04,      /* I =  3 */
(PID.TID 0000.0001)                 4.308205000000000E+04,      /* I =  4 */
(PID.TID 0000.0001)                 8.616407700000000E+04,      /* I =  5 */
(PID.TID 0000.0001)                 9.294963600000000E+04,      /* I =  6 */
(PID.TID 0000.0001)                 8.663720000000000E+04,      /* I =  7 */
(PID.TID 0000.0001)                 9.672608600000000E+04,      /* I =  8 */
(PID.TID 0000.0001)                 1.180295546000000E+06,      /* I =  9 */
(PID.TID 0000.0001)                 2.380715864000000E+06,      /* I = 10 */
(PID.TID 0000.0001)                 2.235709100000000E+04,      /* I = 11 */
(PID.TID 0000.0001)                 2.197202200000000E+04,      /* I = 12 */
(PID.TID 0000.0001)                 2.256904200000000E+04       /* I = 13 */
(PID.TID 0000.0001)     ;
(PID.TID 0000.0001) OB_indexNone = /* null value for OB index (i.e. no OB) */
(PID.TID 0000.0001)                     -99
(PID.TID 0000.0001)     ;
(PID.TID 0000.0001) ======== Tile bi=   1 , bj=   1 ========
(PID.TID 0000.0001)  OB_Jn = /* Northern OB local indices */
(PID.TID 0000.0001)    41 @      -99                            /* I = -3: 37 */
(PID.TID 0000.0001)  OB_Js = /* Southern OB local indices */
(PID.TID 0000.0001)     4 @      -99,                           /* I = -3:  0 */
(PID.TID 0000.0001)    33 @        2,                           /* I =  1: 33 */
(PID.TID 0000.0001)     3 @      -99,                           /* I = 34: 36 */
(PID.TID 0000.0001)                       2                     /* I = 37 */
(PID.TID 0000.0001)  OB_Ie = /* Eastern OB local indices */
(PID.TID 0000.0001)    36 @      -99                            /* J = -3: 32 */
(PID.TID 0000.0001)  OB_Iw = /* Western OB local indices */
(PID.TID 0000.0001)    36 @      -99                            /* J = -3: 32 */
(PID.TID 0000.0001) ======== Tile bi=   2 , bj=   1 ========
(PID.TID 0000.0001)  OB_Jn = /* Northern OB local indices */
(PID.TID 0000.0001)    41 @      -99                            /* I = -3: 37 */
(PID.TID 0000.0001)  OB_Js = /* Southern OB local indices */
(PID.TID 0000.0001)     4 @      -99,                           /* I = -3:  0 */
(PID.TID 0000.0001)    37 @        2                            /* I =  1: 37 */
(PID.TID 0000.0001)  OB_Ie = /* Eastern OB local indices */
(PID.TID 0000.0001)    36 @      -99                            /* J = -3: 32 */
(PID.TID 0000.0001)  OB_Iw = /* Western OB local indices */
(PID.TID 0000.0001)    36 @      -99                            /* J = -3: 32 */
(PID.TID 0000.0001) ======== Tile bi=   3 , bj=   1 ========
(PID.TID 0000.0001)  OB_Jn = /* Northern OB local indices */
(PID.TID 0000.0001)    41 @      -99                            /* I = -3: 37 */
(PID.TID 0000.0001)  OB_Js = /* Southern OB local indices */
(PID.TID 0000.0001)    41 @        2                            /* I = -3: 37 */
(PID.TID 0000.0001)  OB_Ie = /* Eastern OB local indices */
(PID.TID 0000.0001)    36 @      -99                            /* J = -3: 32 */
(PID.TID 0000.0001)  OB_Iw = /* Western OB local indices */
(PID.TID 0000.0001)    36 @      -99                            /* J = -3: 32 */
(PID.TID 0000.0001) ======== Tile bi=   4 , bj=   1 ========
(PID.TID 0000.0001)  OB_Jn = /* Northern OB local indices */
(PID.TID 0000.0001)    41 @      -99                            /* I = -3: 37 */
(PID.TID 0000.0001)  OB_Js = /* Southern OB local indices */
(PID.TID 0000.0001)     3 @      -99,                           /* I = -3: -1 */
(PID.TID 0000.0001)    38 @        2                            /* I =  0: 37 */
(PID.TID 0000.0001)  OB_Ie = /* Eastern OB local indices */
(PID.TID 0000.0001)    36 @      -99                            /* J = -3: 32 */
(PID.TID 0000.0001)  OB_Iw = /* Western OB local indices */
(PID.TID 0000.0001)    36 @      -99                            /* J = -3: 32 */
(PID.TID 0000.0001) ======== Tile bi=   5 , bj=   1 ========
(PID.TID 0000.0001)  OB_Jn = /* Northern OB local indices */
(PID.TID 0000.0001)    41 @      -99                            /* I = -3: 37 */
(PID.TID 0000.0001)  OB_Js = /* Southern OB local indices */
(PID.TID 0000.0001)    41 @        2                            /* I = -3: 37 */
(PID.TID 0000.0001)  OB_Ie = /* Eastern OB local indices */
(PID.TID 0000.0001)    36 @      -99                            /* J = -3: 32 */
(PID.TID 0000.0001)  OB_Iw = /* Western OB local indices */
(PID.TID 0000.0001)    36 @      -99                            /* J = -3: 32 */
(PID.TID 0000.0001) ======== Tile bi=   6 , bj=   1 ========
(PID.TID 0000.0001)  OB_Jn = /* Northern OB local indices */
(PID.TID 0000.0001)    41 @      -99                            /* I = -3: 37 */
(PID.TID 0000.0001)  OB_Js = /* Southern OB local indices */
(PID.TID 0000.0001)    41 @        2                            /* I = -3: 37 */
(PID.TID 0000.0001)  OB_Ie = /* Eastern OB local indices */
(PID.TID 0000.0001)    36 @      -99                            /* J = -3: 32 */
(PID.TID 0000.0001)  OB_Iw = /* Western OB local indices */
(PID.TID 0000.0001)    36 @      -99                            /* J = -3: 32 */
(PID.TID 0000.0001) ======== Tile bi=   7 , bj=   1 ========
(PID.TID 0000.0001)  OB_Jn = /* Northern OB local indices */
(PID.TID 0000.0001)    41 @      -99                            /* I = -3: 37 */
(PID.TID 0000.0001)  OB_Js = /* Southern OB local indices */
(PID.TID 0000.0001)    41 @        2                            /* I = -3: 37 */
(PID.TID 0000.0001)  OB_Ie = /* Eastern OB local indices */
(PID.TID 0000.0001)    36 @      -99                            /* J = -3: 32 */
(PID.TID 0000.0001)  OB_Iw = /* Western OB local indices */
(PID.TID 0000.0001)    36 @      -99                            /* J = -3: 32 */
(PID.TID 0000.0001) ======== Tile bi=   8 , bj=   1 ========
(PID.TID 0000.0001)  OB_Jn = /* Northern OB local indices */
(PID.TID 0000.0001)    41 @      -99                            /* I = -3: 37 */
(PID.TID 0000.0001)  OB_Js = /* Southern OB local indices */
(PID.TID 0000.0001)    41 @        2                            /* I = -3: 37 */
(PID.TID 0000.0001)  OB_Ie = /* Eastern OB local indices */
(PID.TID 0000.0001)    36 @      -99                            /* J = -3: 32 */
(PID.TID 0000.0001)  OB_Iw = /* Western OB local indices */
(PID.TID 0000.0001)    36 @      -99                            /* J = -3: 32 */
(PID.TID 0000.0001) ======== Tile bi=   9 , bj=   1 ========
(PID.TID 0000.0001)  OB_Jn = /* Northern OB local indices */
(PID.TID 0000.0001)    41 @      -99                            /* I = -3: 37 */
(PID.TID 0000.0001)  OB_Js = /* Southern OB local indices */
(PID.TID 0000.0001)    41 @        2                            /* I = -3: 37 */
(PID.TID 0000.0001)  OB_Ie = /* Eastern OB local indices */
(PID.TID 0000.0001)    36 @      -99                            /* J = -3: 32 */
(PID.TID 0000.0001)  OB_Iw = /* Western OB local indices */
(PID.TID 0000.0001)    36 @      -99                            /* J = -3: 32 */
(PID.TID 0000.0001) ======== Tile bi=  10 , bj=   1 ========
(PID.TID 0000.0001)  OB_Jn = /* Northern OB local indices */
(PID.TID 0000.0001)    41 @      -99                            /* I = -3: 37 */
(PID.TID 0000.0001)  OB_Js = /* Southern OB local indices */
(PID.TID 0000.0001)    41 @        2                            /* I = -3: 37 */
(PID.TID 0000.0001)  OB_Ie = /* Eastern OB local indices */
(PID.TID 0000.0001)    36 @      -99                            /* J = -3: 32 */
(PID.TID 0000.0001)  OB_Iw = /* Western OB local indices */
(PID.TID 0000.0001)    36 @      -99                            /* J = -3: 32 */
(PID.TID 0000.0001) OBCS_CHECK: end summary.
(PID.TID 0000.0001) OBCS_CHECK: set-up OK
(PID.TID 0000.0001) OBCS_CHECK: check Inside Mask and OB locations: OK
(PID.TID 0000.0001) KPP_CHECK: #define ALLOW_KPP
(PID.TID 0000.0001)  kpp_freq = /* frequency of KPP calculation */
(PID.TID 0000.0001)                 2.400000000000000E+02
(PID.TID 0000.0001)     ;
(PID.TID 0000.0001) KPP_ghatUseTotalDiffus= /* non-local term fct of total diffus */
(PID.TID 0000.0001)                   F
(PID.TID 0000.0001)     ;
(PID.TID 0000.0001) KPPuseDoubleDiff = /* include double diffusive contrib */
(PID.TID 0000.0001)                   F
(PID.TID 0000.0001)     ;
(PID.TID 0000.0001) LimitHblStable = /* limits depth of hbl if stable cond.*/
(PID.TID 0000.0001)                   T
(PID.TID 0000.0001)     ;
(PID.TID 0000.0001)  minKPPhbl = /* minimum KPPhbl value [m] */
(PID.TID 0000.0001)                 2.500000000000000E+00
(PID.TID 0000.0001)     ;
(PID.TID 0000.0001)  epsln     = /* constant [-] */
(PID.TID 0000.0001)                 9.999999999999999E-21
(PID.TID 0000.0001)     ;
(PID.TID 0000.0001)  phepsi    = /* constant [-] */
(PID.TID 0000.0001)                 1.000000000000000E-10
(PID.TID 0000.0001)     ;
(PID.TID 0000.0001)  epsilon   = /* constant [-] */
(PID.TID 0000.0001)                 1.000000000000000E-01
(PID.TID 0000.0001)     ;
(PID.TID 0000.0001)  vonk      = /* Von Karmans constant [-] */
(PID.TID 0000.0001)                 4.000000000000000E-01
(PID.TID 0000.0001)     ;
(PID.TID 0000.0001)  dB_dz     = /* maximum N^2 in mixed layer [s^-2] */
(PID.TID 0000.0001)                 5.200000000000000E-05
(PID.TID 0000.0001)     ;
(PID.TID 0000.0001)  conc1     = /* scalar constant [-] */
(PID.TID 0000.0001)                 5.000000000000000E+00
(PID.TID 0000.0001)     ;
(PID.TID 0000.0001)  conam     = /* scalar constant [-] */
(PID.TID 0000.0001)                 1.257000000000000E+00
(PID.TID 0000.0001)     ;
(PID.TID 0000.0001)  concm     = /* scalar constant [-] */
(PID.TID 0000.0001)                 8.380000000000001E+00
(PID.TID 0000.0001)     ;
(PID.TID 0000.0001)  conc2     = /* scalar constant [-] */
(PID.TID 0000.0001)                 1.600000000000000E+01
(PID.TID 0000.0001)     ;
(PID.TID 0000.0001)  conas     = /* scalar constant [-] */
(PID.TID 0000.0001)                -2.886000000000000E+01
(PID.TID 0000.0001)     ;
(PID.TID 0000.0001)  concs     = /* scalar constant [-] */
(PID.TID 0000.0001)                 9.895999999999999E+01
(PID.TID 0000.0001)     ;
(PID.TID 0000.0001)  conc3     = /* scalar constant [-] */
(PID.TID 0000.0001)                 1.600000000000000E+01
(PID.TID 0000.0001)     ;
(PID.TID 0000.0001)  zetam     = /* scalar constant [-] */
(PID.TID 0000.0001)                -2.000000000000000E-01
(PID.TID 0000.0001)     ;
(PID.TID 0000.0001)  zetas     = /* scalar constant [-] */
(PID.TID 0000.0001)                -1.000000000000000E+00
(PID.TID 0000.0001)     ;
(PID.TID 0000.0001)  Ricr      = /* critical bulk Richardson Number [-] */
(PID.TID 0000.0001)                 3.000000000000000E-01
(PID.TID 0000.0001)     ;
(PID.TID 0000.0001)  cekman    = /* coeff for Ekman depth [-] */
(PID.TID 0000.0001)                 7.000000000000000E-01
(PID.TID 0000.0001)     ;
(PID.TID 0000.0001)  cmonob    = /* coeff for Monin-Obukhov depth [-] */
(PID.TID 0000.0001)                 1.000000000000000E+00
(PID.TID 0000.0001)     ;
(PID.TID 0000.0001)  concv     = /* buoyancy freq ratio [-] */
(PID.TID 0000.0001)                 1.800000000000000E+00
(PID.TID 0000.0001)     ;
(PID.TID 0000.0001)  hbf       = /* solar radiation depth ratio [-] */
(PID.TID 0000.0001)                 1.000000000000000E+00
(PID.TID 0000.0001)     ;
(PID.TID 0000.0001)  zmin      = /* minimum for zehat in table [m3/s3] */
(PID.TID 0000.0001)                -4.000000000000000E-07
(PID.TID 0000.0001)     ;
(PID.TID 0000.0001)  zmax      = /* maximum for zehat in table [m3/s3] */
(PID.TID 0000.0001)                 0.000000000000000E+00
(PID.TID 0000.0001)     ;
(PID.TID 0000.0001)  umin      = /* minimum for ustar in table [m/s] */
(PID.TID 0000.0001)                 0.000000000000000E+00
(PID.TID 0000.0001)     ;
(PID.TID 0000.0001)  umax      = /* maximum for ustar in table [m/s] */
(PID.TID 0000.0001)                 4.000000000000000E-02
(PID.TID 0000.0001)     ;
(PID.TID 0000.0001) num_v_smooth_Ri = /* number of vertical smoothing */
(PID.TID 0000.0001)                       0
(PID.TID 0000.0001)     ;
(PID.TID 0000.0001)  Riinfty   = /* shear instability Ri number limit [-] */
(PID.TID 0000.0001)                 7.000000000000000E-01
(PID.TID 0000.0001)     ;
(PID.TID 0000.0001)  BVSQcon   = /* Brunt-Vaisala squared (=N^2) [s^-2] */
(PID.TID 0000.0001)                -2.000000000000000E-05
(PID.TID 0000.0001)     ;
(PID.TID 0000.0001)  difm0     = /* max viscosity from shear instab. [m2/s] */
(PID.TID 0000.0001)                 5.000000000000000E-03
(PID.TID 0000.0001)     ;
(PID.TID 0000.0001)  difs0     = /* max diffusiv. from shear instab. [m2/s] */
(PID.TID 0000.0001)                 5.000000000000000E-03
(PID.TID 0000.0001)     ;
(PID.TID 0000.0001)  dift0     = /* max diffusiv. from shear instab. [m2/s] */
(PID.TID 0000.0001)                 5.000000000000000E-03
(PID.TID 0000.0001)     ;
(PID.TID 0000.0001)  difmcon   = /* convective viscosity [m2/s] */
(PID.TID 0000.0001)                 1.000000000000000E-01
(PID.TID 0000.0001)     ;
(PID.TID 0000.0001)  difscon   = /* convective diffusiv. [m2/s] */
(PID.TID 0000.0001)                 1.000000000000000E-01
(PID.TID 0000.0001)     ;
(PID.TID 0000.0001)  diftcon   = /* convective diffusiv. [m2/s] */
(PID.TID 0000.0001)                 1.000000000000000E-01
(PID.TID 0000.0001)     ;
(PID.TID 0000.0001)  Rrho0     = /* double diffusion density ratio [-] */
(PID.TID 0000.0001)                 1.900000000000000E+00
(PID.TID 0000.0001)     ;
(PID.TID 0000.0001)  dsfmax    = /* max diffusiv. for salt fingering [m2/s] */
(PID.TID 0000.0001)                 1.000000000000000E-02
(PID.TID 0000.0001)     ;
(PID.TID 0000.0001)  cstar     = /* coeff for non-locak transport [-] */
(PID.TID 0000.0001)                 1.000000000000000E+01
(PID.TID 0000.0001)     ;
(PID.TID 0000.0001) KPPwriteState = /* write KPP fields to file */
(PID.TID 0000.0001)                   F
(PID.TID 0000.0001)     ;
(PID.TID 0000.0001)  kpp_dumpFreq = /* dump freq of KPP output */
(PID.TID 0000.0001)                 0.000000000000000E+00
(PID.TID 0000.0001)     ;
(PID.TID 0000.0001)  kpp_taveFreq = /* time-averaging freq of KPP output */
(PID.TID 0000.0001)                 0.000000000000000E+00
(PID.TID 0000.0001)     ;
(PID.TID 0000.0001) 
(PID.TID 0000.0001) EXF_CHECK: #define ALLOW_EXF
(PID.TID 0000.0001) GAD_CHECK: #define ALLOW_GENERIC_ADVDIFF
(PID.TID 0000.0001) // =======================================================
(PID.TID 0000.0001) // Check Model config. (CONFIG_CHECK):
(PID.TID 0000.0001) // CONFIG_CHECK : Normal End
(PID.TID 0000.0001) // =======================================================
(PID.TID 0000.0001) 
(PID.TID 0000.0001)  MDS_READ_FIELD: opening global file: U0_1815x532x100.bin
(PID.TID 0000.0001)  MDS_READ_FIELD: opening global file: V0_1815x532x100.bin
(PID.TID 0000.0001)  MDS_READ_FIELD: opening global file: T0_1815x532x100.bin
(PID.TID 0000.0001)  MDS_READ_FIELD: opening global file: S0_1815x532x100.bin
(PID.TID 0000.0001) Start initial hydrostatic pressure computation
(PID.TID 0000.0001) Pressure is predetermined for buoyancyRelation OCEANIC
(PID.TID 0000.0001) 
(PID.TID 0000.0001)  write diagnostics summary to file ioUnit:      6
Iter.Nb:         0 ; Time(s):  0.0000000000000E+00
------------------------------------------------------------------------
2D/3D diagnostics: Number of lists:     2
------------------------------------------------------------------------
listId=    1 ; file name: diags/surface
 nFlds, nActive,       freq     &     phase        , nLev               
    5  |    5  |      3600.000000         0.000000 |   1
 levels:   1
 diag# | name   |   ipt  |  iMate | kLev|   count |   mate.C|           
    23 |ETAN    |      1 |      0 |   1 |       0 |
    80 |oceTAUX |      2 |      3 |   1 |       0 |       0 |
    81 |oceTAUY |      3 |      2 |   1 |       0 |       0 |
   185 |EXFuwind|      4 |      0 |   1 |       0 |
   186 |EXFvwind|      5 |      0 |   1 |       0 |
------------------------------------------------------------------------
listId=    2 ; file name: diags/interior
 nFlds, nActive,       freq     &     phase        , nLev               
    9  |    9  |   2592000.000000         0.000000 | 100
 levels:   1   2   3   4   5   6   7   8   9  10  11  12  13  14  15  16  17  18  19  20  21  22  23  24  25
 levels:  26  27  28  29  30  31  32  33  34  35  36  37  38  39  40  41  42  43  44  45  46  47  48  49  50
 levels:  51  52  53  54  55  56  57  58  59  60  61  62  63  64  65  66  67  68  69  70  71  72  73  74  75
 levels:  76  77  78  79  80  81  82  83  84  85  86  87  88  89  90  91  92  93  94  95  96  97  98  99 100
 diag# | name   |   ipt  |  iMate | kLev|   count |   mate.C|           
    26 |THETA   |      6 |      0 | 100 |       0 |
    27 |SALT    |    106 |      0 | 100 |       0 |
    30 |UVEL    |    206 |    306 | 100 |       0 |       0 |
    31 |VVEL    |    306 |    206 | 100 |       0 |       0 |
    32 |WVEL    |    406 |      0 | 100 |       0 |
    36 |UVELSQ  |    506 |    606 | 100 |       0 |       0 |
    37 |VVELSQ  |    606 |    506 | 100 |       0 |       0 |
    52 |WTHMASS |    706 |      0 | 100 |       0 |
    55 |WSLTMASS|    806 |      0 | 100 |       0 |
------------------------------------------------------------------------
Global & Regional Statistics diagnostics: Number of lists:     0
------------------------------------------------------------------------
(PID.TID 0000.0001)  MDS_READ_SEC_XZ: opening global file: OBNvam_1815x13.bin
(PID.TID 0000.0001)  MDS_READ_SEC_XZ: opening global file: OBNvph_1815x13.bin
(PID.TID 0000.0001)  MDS_READ_SEC_XZ: opening global file: OBSvam_1815x13.bin
(PID.TID 0000.0001)  MDS_READ_SEC_XZ: opening global file: OBSvph_1815x13.bin
(PID.TID 0000.0001)  MDS_READ_SEC_YZ: opening global file: OBEuam_532x13.bin
(PID.TID 0000.0001)  MDS_READ_SEC_YZ: opening global file: OBEuph_532x13.bin
(PID.TID 0000.0001)  MDS_READ_SEC_XZ: opening global file: OBNu_1815x100x26.bin
(PID.TID 0000.0001)  MDS_READ_SEC_XZ: opening global file: OBNu_1815x100x26.bin
(PID.TID 0000.0001)  MDS_READ_SEC_XZ: opening global file: OBNv_1815x100x26.bin
(PID.TID 0000.0001)  MDS_READ_SEC_XZ: opening global file: OBNv_1815x100x26.bin
(PID.TID 0000.0001)  MDS_READ_SEC_XZ: opening global file: OBNt_1815x100x26.bin
(PID.TID 0000.0001)  MDS_READ_SEC_XZ: opening global file: OBNt_1815x100x26.bin
(PID.TID 0000.0001)  MDS_READ_SEC_XZ: opening global file: OBNs_1815x100x26.bin
(PID.TID 0000.0001)  MDS_READ_SEC_XZ: opening global file: OBNs_1815x100x26.bin
(PID.TID 0000.0001)  MDS_READ_SEC_XZ: opening global file: OBSu_1815x100x26.bin
(PID.TID 0000.0001)  MDS_READ_SEC_XZ: opening global file: OBSu_1815x100x26.bin
(PID.TID 0000.0001)  MDS_READ_SEC_XZ: opening global file: OBSv_1815x100x26.bin
(PID.TID 0000.0001)  MDS_READ_SEC_XZ: opening global file: OBSv_1815x100x26.bin
(PID.TID 0000.0001)  MDS_READ_SEC_XZ: opening global file: OBSt_1815x100x26.bin
(PID.TID 0000.0001)  MDS_READ_SEC_XZ: opening global file: OBSt_1815x100x26.bin
(PID.TID 0000.0001)  MDS_READ_SEC_XZ: opening global file: OBSs_1815x100x26.bin
(PID.TID 0000.0001)  MDS_READ_SEC_XZ: opening global file: OBSs_1815x100x26.bin
(PID.TID 0000.0001) // =======================================================
(PID.TID 0000.0001) // Model current state
(PID.TID 0000.0001) // =======================================================
(PID.TID 0000.0001) 
(PID.TID 0000.0001) // =======================================================
(PID.TID 0000.0001) // Begin MONITOR dynamic field statistics
(PID.TID 0000.0001) // =======================================================
(PID.TID 0000.0001) %MON time_tsnumber                =                     0
(PID.TID 0000.0001) %MON time_secondsf                =   0.0000000000000E+00
(PID.TID 0000.0001) %MON dynstat_eta_max              =   0.0000000000000E+00
(PID.TID 0000.0001) %MON dynstat_eta_min              =   0.0000000000000E+00
(PID.TID 0000.0001) %MON dynstat_eta_mean             =   0.0000000000000E+00
(PID.TID 0000.0001) %MON dynstat_eta_sd               =   0.0000000000000E+00
(PID.TID 0000.0001) %MON dynstat_eta_del2             =   0.0000000000000E+00
(PID.TID 0000.0001) %MON dynstat_uvel_max             =   1.2655940055847E+00
(PID.TID 0000.0001) %MON dynstat_uvel_min             =  -6.7179697751999E-01
(PID.TID 0000.0001) %MON dynstat_uvel_mean            =   3.8933782453988E-03
(PID.TID 0000.0001) %MON dynstat_uvel_sd              =   5.2086469330267E-02
(PID.TID 0000.0001) %MON dynstat_uvel_del2            =   3.0019794494441E-07
(PID.TID 0000.0001) %MON dynstat_vvel_max             =   1.7893446683884E+00
(PID.TID 0000.0001) %MON dynstat_vvel_min             =  -8.8630950450897E-01
(PID.TID 0000.0001) %MON dynstat_vvel_mean            =  -2.3242106095395E-04
(PID.TID 0000.0001) %MON dynstat_vvel_sd              =   4.8400497184568E-02
(PID.TID 0000.0001) %MON dynstat_vvel_del2            =   3.7444418366540E-07
(PID.TID 0000.0001) %MON dynstat_wvel_max             =   1.0282457480429E-01
(PID.TID 0000.0001) %MON dynstat_wvel_min             =  -8.3494594344008E-02
(PID.TID 0000.0001) %MON dynstat_wvel_mean            =  -1.0149663805711E-05
(PID.TID 0000.0001) %MON dynstat_wvel_sd              =   1.2877497736725E-03
(PID.TID 0000.0001) %MON dynstat_wvel_del2            =   3.4230368929701E-07
(PID.TID 0000.0001) %MON dynstat_theta_max            =   2.6144617080688E+01
(PID.TID 0000.0001) %MON dynstat_theta_min            =   1.4688636064529E+00
(PID.TID 0000.0001) %MON dynstat_theta_mean           =   5.5098811020492E+00
(PID.TID 0000.0001) %MON dynstat_theta_sd             =   4.7735348546541E+00
(PID.TID 0000.0001) %MON dynstat_theta_del2           =   4.0189244228803E-06
(PID.TID 0000.0001) %MON dynstat_salt_max             =   3.9185241699219E+01
(PID.TID 0000.0001) %MON dynstat_salt_min             =   3.3089591979980E+01
(PID.TID 0000.0001) %MON dynstat_salt_mean            =   3.5173374558495E+01
(PID.TID 0000.0001) %MON dynstat_salt_sd              =   3.7891790794923E-01
(PID.TID 0000.0001) %MON dynstat_salt_del2            =   4.9655867703385E-07
(PID.TID 0000.0001) %MON forcing_qnet_max             =   0.0000000000000E+00
(PID.TID 0000.0001) %MON forcing_qnet_min             =   0.0000000000000E+00
(PID.TID 0000.0001) %MON forcing_qnet_mean            =   0.0000000000000E+00
(PID.TID 0000.0001) %MON forcing_qnet_sd              =   0.0000000000000E+00
(PID.TID 0000.0001) %MON forcing_qnet_del2            =   0.0000000000000E+00
(PID.TID 0000.0001) %MON forcing_qsw_max              =   0.0000000000000E+00
(PID.TID 0000.0001) %MON forcing_qsw_min              =   0.0000000000000E+00
(PID.TID 0000.0001) %MON forcing_qsw_mean             =   0.0000000000000E+00
(PID.TID 0000.0001) %MON forcing_qsw_sd               =   0.0000000000000E+00
(PID.TID 0000.0001) %MON forcing_qsw_del2             =   0.0000000000000E+00
(PID.TID 0000.0001) %MON forcing_empmr_max            =   0.0000000000000E+00
(PID.TID 0000.0001) %MON forcing_empmr_min            =   0.0000000000000E+00
(PID.TID 0000.0001) %MON forcing_empmr_mean           =   0.0000000000000E+00
(PID.TID 0000.0001) %MON forcing_empmr_sd             =   0.0000000000000E+00
(PID.TID 0000.0001) %MON forcing_empmr_del2           =   0.0000000000000E+00
(PID.TID 0000.0001) %MON forcing_fu_max               =   0.0000000000000E+00
(PID.TID 0000.0001) %MON forcing_fu_min               =   0.0000000000000E+00
(PID.TID 0000.0001) %MON forcing_fu_mean              =   0.0000000000000E+00
(PID.TID 0000.0001) %MON forcing_fu_sd                =   0.0000000000000E+00
(PID.TID 0000.0001) %MON forcing_fu_del2              =   0.0000000000000E+00
(PID.TID 0000.0001) %MON forcing_fv_max               =   0.0000000000000E+00
(PID.TID 0000.0001) %MON forcing_fv_min               =   0.0000000000000E+00
(PID.TID 0000.0001) %MON forcing_fv_mean              =   0.0000000000000E+00
(PID.TID 0000.0001) %MON forcing_fv_sd                =   0.0000000000000E+00
(PID.TID 0000.0001) %MON forcing_fv_del2              =   0.0000000000000E+00
(PID.TID 0000.0001) %MON trAdv_CFL_u_max              =   0.0000000000000E+00
(PID.TID 0000.0001) %MON trAdv_CFL_v_max              =   0.0000000000000E+00
(PID.TID 0000.0001) %MON trAdv_CFL_w_max              =   0.0000000000000E+00
(PID.TID 0000.0001) %MON advcfl_uvel_max              =   7.6757822680034E-02
(PID.TID 0000.0001) %MON advcfl_vvel_max              =   1.1363552115820E-01
(PID.TID 0000.0001) %MON advcfl_wvel_max              =   9.8711591812122E+00
(PID.TID 0000.0001) %MON advcfl_W_hf_max              =   4.9208242453468E+00
(PID.TID 0000.0001) %MON pe_b_mean                    =   0.0000000000000E+00
(PID.TID 0000.0001) %MON ke_max                       =   1.6014653258787E+00
(PID.TID 0000.0001) %MON ke_mean                      =   2.5166575020937E-03
(PID.TID 0000.0001) %MON ke_vol                       =   4.5818637279721E+16
(PID.TID 0000.0001) %MON vort_r_min                   =  -2.7112786765354E-04
(PID.TID 0000.0001) %MON vort_r_max                   =   3.8230498298947E-04
(PID.TID 0000.0001) %MON vort_a_mean                  =   8.2147610477260E-05
(PID.TID 0000.0001) %MON vort_a_sd                    =   1.0110265154090E-05
(PID.TID 0000.0001) %MON vort_p_mean                  =   8.4848831371702E-05
(PID.TID 0000.0001) %MON vort_p_sd                    =   3.4983693674099E-05
(PID.TID 0000.0001) %MON surfExpan_theta_mean         =  -3.8623016170888E-04
(PID.TID 0000.0001) %MON surfExpan_salt_mean          =  -5.5043552761741E-04
(PID.TID 0000.0001) // =======================================================
(PID.TID 0000.0001) // End MONITOR dynamic field statistics
(PID.TID 0000.0001) // =======================================================
(PID.TID 0000.0001) // =======================================================
(PID.TID 0000.0001) // Begin OBCS MONITOR field statistics
(PID.TID 0000.0001) // =======================================================
(PID.TID 0000.0001) %MON obc_N_vVel_max               =   6.7993586525528E-01
(PID.TID 0000.0001) %MON obc_N_vVel_min               =  -6.8749793232970E-01
(PID.TID 0000.0001) %MON obc_N_vVel_mean              =  -5.4538003716071E-03
(PID.TID 0000.0001) %MON obc_N_vVel_sd                =   6.2722945452050E-02
(PID.TID 0000.0001) %MON obc_N_vVel_Int               =  -7.8071612962104E+07
(PID.TID 0000.0001) %MON obc_S_vVel_max               =   1.5853287701817E+00
(PID.TID 0000.0001) %MON obc_S_vVel_min               =  -2.5505964034756E-01
(PID.TID 0000.0001) %MON obc_S_vVel_mean              =  -8.0869570144539E-03
(PID.TID 0000.0001) %MON obc_S_vVel_sd                =   3.6976278224802E-02
(PID.TID 0000.0001) %MON obc_S_vVel_Int               =  -2.4619042105025E+08
(PID.TID 0000.0001) %MON obc_N_theta_max              =   1.6390861045164E+01
(PID.TID 0000.0001) %MON obc_N_theta_min              =   1.8895907269856E+00
(PID.TID 0000.0001) %MON obc_N_theta_mean             =   5.1589805018889E+00
(PID.TID 0000.0001) %MON obc_N_theta_sd               =   3.4827339404776E+00
(PID.TID 0000.0001) %MON obc_S_theta_max              =   2.5544941308807E+01
(PID.TID 0000.0001) %MON obc_S_theta_min              =   1.4632956408867E+00
(PID.TID 0000.0001) %MON obc_S_theta_mean             =   5.4595577802115E+00
(PID.TID 0000.0001) %MON obc_S_theta_sd               =   5.3559370357223E+00
(PID.TID 0000.0001) %MON obc_N_salt_max               =   3.5910867647958E+01
(PID.TID 0000.0001) %MON obc_N_salt_min               =   3.3295014070045E+01
(PID.TID 0000.0001) %MON obc_N_salt_mean              =   3.5114564316350E+01
(PID.TID 0000.0001) %MON obc_N_salt_sd                =   3.0984932953373E-01
(PID.TID 0000.0001) %MON obc_S_salt_max               =   3.7318346630621E+01
(PID.TID 0000.0001) %MON obc_S_salt_min               =   3.4844694313817E+01
(PID.TID 0000.0001) %MON obc_S_salt_mean              =   3.5168372938835E+01
(PID.TID 0000.0001) %MON obc_S_salt_sd                =   4.5717110791086E-01
(PID.TID 0000.0001) // =======================================================
(PID.TID 0000.0001) // End OBCS MONITOR field statistics
(PID.TID 0000.0001) // =======================================================
(PID.TID 0000.0001)  EXF_INTERP_READ: opening file: era_forcing/ERA5_u10m_2008
(PID.TID 0000.0001)  EXF_INTERP_READ: opening file: era_forcing/ERA5_v10m_2008
(PID.TID 0000.0001)  EXF_INTERP_UV: fileU="era_forcing/ERA5_u10m_2008", rec=     1 , x-Per,P.Sym=    T    T
(PID.TID 0000.0001)  S.edge (j=-1,0,1) : proc= 2.2 1.1 0.0, yIn=  -90.215115  -90.000000  -89.784885
(PID.TID 0000.0001)  N.edge (j=+0,+1,+2) proc= 0.0 1.1 2.2, yIn=   89.784885   90.000000   90.215115
(PID.TID 0000.0001)  EXF_INTERP_READ: opening file: era_forcing/ERA5_u10m_2008
(PID.TID 0000.0001)  EXF_INTERP_READ: opening file: era_forcing/ERA5_v10m_2008
(PID.TID 0000.0001)  EXF_INTERP_UV: fileU="era_forcing/ERA5_u10m_2008", rec=     2 , x-Per,P.Sym=    T    T
(PID.TID 0000.0001)  S.edge (j=-1,0,1) : proc= 2.2 1.1 0.0, yIn=  -90.215115  -90.000000  -89.784885
(PID.TID 0000.0001)  N.edge (j=+0,+1,+2) proc= 0.0 1.1 2.2, yIn=   89.784885   90.000000   90.215115
(PID.TID 0000.0001)  EXF_INTERP_READ: opening file: era_forcing/ERA5_tmp2m_degC_2008
(PID.TID 0000.0001)  EXF_INTERP: file="era_forcing/ERA5_tmp2m_degC_2008", rec=     1 , x-Per,P.Sym=    T    T
(PID.TID 0000.0001)  S.edge (j=-1,0,1) : proc= 2.2 1.1 0.0, yIn=  -90.215115  -90.000000  -89.784885
(PID.TID 0000.0001)  N.edge (j=+0,+1,+2) proc= 0.0 1.1 2.2, yIn=   89.784885   90.000000   90.215115
(PID.TID 0000.0001)  EXF_INTERP_READ: opening file: era_forcing/ERA5_tmp2m_degC_2008
(PID.TID 0000.0001)  EXF_INTERP: file="era_forcing/ERA5_tmp2m_degC_2008", rec=     2 , x-Per,P.Sym=    T    T
(PID.TID 0000.0001)  S.edge (j=-1,0,1) : proc= 2.2 1.1 0.0, yIn=  -90.215115  -90.000000  -89.784885
(PID.TID 0000.0001)  N.edge (j=+0,+1,+2) proc= 0.0 1.1 2.2, yIn=   89.784885   90.000000   90.215115
(PID.TID 0000.0001)  EXF_INTERP_READ: opening file: era_forcing/ERA5_spfh2m_2008
(PID.TID 0000.0001)  EXF_INTERP: file="era_forcing/ERA5_spfh2m_2008", rec=     1 , x-Per,P.Sym=    T    T
(PID.TID 0000.0001)  S.edge (j=-1,0,1) : proc= 2.2 1.1 0.0, yIn=  -90.215115  -90.000000  -89.784885
(PID.TID 0000.0001)  N.edge (j=+0,+1,+2) proc= 0.0 1.1 2.2, yIn=   89.784885   90.000000   90.215115
(PID.TID 0000.0001)  EXF_INTERP_READ: opening file: era_forcing/ERA5_spfh2m_2008
(PID.TID 0000.0001)  EXF_INTERP: file="era_forcing/ERA5_spfh2m_2008", rec=     2 , x-Per,P.Sym=    T    T
(PID.TID 0000.0001)  S.edge (j=-1,0,1) : proc= 2.2 1.1 0.0, yIn=  -90.215115  -90.000000  -89.784885
(PID.TID 0000.0001)  N.edge (j=+0,+1,+2) proc= 0.0 1.1 2.2, yIn=   89.784885   90.000000   90.215115
(PID.TID 0000.0001)  EXF_INTERP_READ: opening file: era_forcing/ERA5_rain_2007
(PID.TID 0000.0001)  EXF_INTERP: file="era_forcing/ERA5_rain_2007", rec=  8760 , x-Per,P.Sym=    T    T
(PID.TID 0000.0001)  S.edge (j=-1,0,1) : proc= 2.2 1.1 0.0, yIn=  -90.215115  -90.000000  -89.784885
(PID.TID 0000.0001)  N.edge (j=+0,+1,+2) proc= 0.0 1.1 2.2, yIn=   89.784885   90.000000   90.215115
(PID.TID 0000.0001)  EXF_INTERP_READ: opening file: era_forcing/ERA5_rain_2008
(PID.TID 0000.0001)  EXF_INTERP: file="era_forcing/ERA5_rain_2008", rec=     1 , x-Per,P.Sym=    T    T
(PID.TID 0000.0001)  S.edge (j=-1,0,1) : proc= 2.2 1.1 0.0, yIn=  -90.215115  -90.000000  -89.784885
(PID.TID 0000.0001)  N.edge (j=+0,+1,+2) proc= 0.0 1.1 2.2, yIn=   89.784885   90.000000   90.215115
(PID.TID 0000.0001)  EXF_INTERP_READ: opening file: era_forcing/ERA5_dsw_2007
(PID.TID 0000.0001)  EXF_INTERP: file="era_forcing/ERA5_dsw_2007", rec=  8760 , x-Per,P.Sym=    T    T
(PID.TID 0000.0001)  S.edge (j=-1,0,1) : proc= 2.2 1.1 0.0, yIn=  -90.215115  -90.000000  -89.784885
(PID.TID 0000.0001)  N.edge (j=+0,+1,+2) proc= 0.0 1.1 2.2, yIn=   89.784885   90.000000   90.215115
(PID.TID 0000.0001)  EXF_INTERP_READ: opening file: era_forcing/ERA5_dsw_2008
(PID.TID 0000.0001)  EXF_INTERP: file="era_forcing/ERA5_dsw_2008", rec=     1 , x-Per,P.Sym=    T    T
(PID.TID 0000.0001)  S.edge (j=-1,0,1) : proc= 2.2 1.1 0.0, yIn=  -90.215115  -90.000000  -89.784885
(PID.TID 0000.0001)  N.edge (j=+0,+1,+2) proc= 0.0 1.1 2.2, yIn=   89.784885   90.000000   90.215115
(PID.TID 0000.0001)  EXF_INTERP_READ: opening file: era_forcing/ERA5_dlw_2007
(PID.TID 0000.0001)  EXF_INTERP: file="era_forcing/ERA5_dlw_2007", rec=  8760 , x-Per,P.Sym=    T    T
(PID.TID 0000.0001)  S.edge (j=-1,0,1) : proc= 2.2 1.1 0.0, yIn=  -90.215115  -90.000000  -89.784885
(PID.TID 0000.0001)  N.edge (j=+0,+1,+2) proc= 0.0 1.1 2.2, yIn=   89.784885   90.000000   90.215115
(PID.TID 0000.0001)  EXF_INTERP_READ: opening file: era_forcing/ERA5_dlw_2008
(PID.TID 0000.0001)  EXF_INTERP: file="era_forcing/ERA5_dlw_2008", rec=     1 , x-Per,P.Sym=    T    T
(PID.TID 0000.0001)  S.edge (j=-1,0,1) : proc= 2.2 1.1 0.0, yIn=  -90.215115  -90.000000  -89.784885
(PID.TID 0000.0001)  N.edge (j=+0,+1,+2) proc= 0.0 1.1 2.2, yIn=   89.784885   90.000000   90.215115
(PID.TID 0000.0001)  EXF_INTERP_READ: opening file: era_forcing/ERA5_pres_2008
(PID.TID 0000.0001)  EXF_INTERP: file="era_forcing/ERA5_pres_2008", rec=     1 , x-Per,P.Sym=    T    T
(PID.TID 0000.0001)  S.edge (j=-1,0,1) : proc= 2.2 1.1 0.0, yIn=  -90.215115  -90.000000  -89.784885
(PID.TID 0000.0001)  N.edge (j=+0,+1,+2) proc= 0.0 1.1 2.2, yIn=   89.784885   90.000000   90.215115
(PID.TID 0000.0001)  EXF_INTERP_READ: opening file: era_forcing/ERA5_pres_2008
(PID.TID 0000.0001)  EXF_INTERP: file="era_forcing/ERA5_pres_2008", rec=     2 , x-Per,P.Sym=    T    T
(PID.TID 0000.0001)  S.edge (j=-1,0,1) : proc= 2.2 1.1 0.0, yIn=  -90.215115  -90.000000  -89.784885
(PID.TID 0000.0001)  N.edge (j=+0,+1,+2) proc= 0.0 1.1 2.2, yIn=   89.784885   90.000000   90.215115
(PID.TID 0000.0001)  EXF_INTERP_READ: opening file: tide_IAU_EARTH_2008
(PID.TID 0000.0001)  EXF_INTERP: file="tide_IAU_EARTH_2008", rec=     1 , x-Per,P.Sym=    T    T
(PID.TID 0000.0001)  S.edge (j=-1,0,1) : proc= 0.2 0.2 0.1, yIn=  -92.000000  -91.000000  -90.000000
(PID.TID 0000.0001)  N.edge (j=+0,+1,+2) proc= 0.1 0.2 0.2, yIn=   90.000000   91.000000   92.000000
(PID.TID 0000.0001)  EXF_INTERP_READ: opening file: tide_IAU_EARTH_2008
(PID.TID 0000.0001)  EXF_INTERP: file="tide_IAU_EARTH_2008", rec=     2 , x-Per,P.Sym=    T    T
(PID.TID 0000.0001)  S.edge (j=-1,0,1) : proc= 0.2 0.2 0.1, yIn=  -92.000000  -91.000000  -90.000000
(PID.TID 0000.0001)  N.edge (j=+0,+1,+2) proc= 0.1 0.2 0.2, yIn=   90.000000   91.000000   92.000000
(PID.TID 0000.0001)  EXF_INTERP_READ: opening file: runoff1p2472-360x180x12.bin
(PID.TID 0000.0001)  EXF_INTERP: file="runoff1p2472-360x180x12.bin", rec=    12 , x-Per,P.Sym=    T    T
(PID.TID 0000.0001)  S.edge (j=-1,0,1) : proc= 2.2 1.1 0.0, yIn=  -90.500000  -90.000000  -89.500000
(PID.TID 0000.0001)  N.edge (j=+0,+1,+2) proc= 0.0 1.1 2.2, yIn=   89.500000   90.000000   90.500000
(PID.TID 0000.0001)  EXF_INTERP_READ: opening file: runoff1p2472-360x180x12.bin
(PID.TID 0000.0001)  EXF_INTERP: file="runoff1p2472-360x180x12.bin", rec=     1 , x-Per,P.Sym=    T    T
(PID.TID 0000.0001)  S.edge (j=-1,0,1) : proc= 2.2 1.1 0.0, yIn=  -90.500000  -90.000000  -89.500000
(PID.TID 0000.0001)  N.edge (j=+0,+1,+2) proc= 0.0 1.1 2.2, yIn=   89.500000   90.000000   90.500000
(PID.TID 0000.0001) // =======================================================
(PID.TID 0000.0001) // Begin MONITOR EXF statistics
(PID.TID 0000.0001) // =======================================================
(PID.TID 0000.0001) %MON exf_tsnumber                 =                     0
(PID.TID 0000.0001) %MON exf_time_sec                 =   0.0000000000000E+00
(PID.TID 0000.0001) %MON exf_ustress_max              =   8.4404131106206E-01
(PID.TID 0000.0001) %MON exf_ustress_min              =  -4.3382382219348E-01
(PID.TID 0000.0001) %MON exf_ustress_mean             =   6.3244108071816E-02
(PID.TID 0000.0001) %MON exf_ustress_sd               =   1.5772626282247E-01
(PID.TID 0000.0001) %MON exf_ustress_del2             =   4.4509925548370E-07
(PID.TID 0000.0001) %MON exf_vstress_max              =   4.3288199583206E-01
(PID.TID 0000.0001) %MON exf_vstress_min              =  -5.7618537305566E-01
(PID.TID 0000.0001) %MON exf_vstress_mean             =   1.0767056548219E-02
(PID.TID 0000.0001) %MON exf_vstress_sd               =   1.0393227140073E-01
(PID.TID 0000.0001) %MON exf_vstress_del2             =   3.5304428371178E-07
(PID.TID 0000.0001) %MON exf_hflux_max                =   1.1426329991944E+03
(PID.TID 0000.0001) %MON exf_hflux_min                =  -2.5286213233087E+02
(PID.TID 0000.0001) %MON exf_hflux_mean               =   2.4640024125155E+02
(PID.TID 0000.0001) %MON exf_hflux_sd                 =   1.4494848229818E+02
(PID.TID 0000.0001) %MON exf_hflux_del2               =   1.1218465536740E-01
(PID.TID 0000.0001) %MON exf_sflux_max                =   2.6342200134154E-07
(PID.TID 0000.0001) %MON exf_sflux_min                =  -7.7122086946965E-07
(PID.TID 0000.0001) %MON exf_sflux_mean               =   1.0894782360777E-08
(PID.TID 0000.0001) %MON exf_sflux_sd                 =   9.8849584327323E-08
(PID.TID 0000.0001) %MON exf_sflux_del2               =   3.9006286577472E-11
(PID.TID 0000.0001) %MON exf_uwind_max                =   1.9606748338893E+01
(PID.TID 0000.0001) %MON exf_uwind_min                =  -1.5209100052697E+01
(PID.TID 0000.0001) %MON exf_uwind_mean               =   2.4660403514279E+00
(PID.TID 0000.0001) %MON exf_uwind_sd                 =   6.7030914983872E+00
(PID.TID 0000.0001) %MON exf_uwind_del2               =   2.8506324369397E-03
(PID.TID 0000.0001) %MON exf_vwind_max                =   1.4862500561074E+01
(PID.TID 0000.0001) %MON exf_vwind_min                =  -1.2850748525496E+01
(PID.TID 0000.0001) %MON exf_vwind_mean               =   8.4485438384013E-01
(PID.TID 0000.0001) %MON exf_vwind_sd                 =   5.2438301380639E+00
(PID.TID 0000.0001) %MON exf_vwind_del2               =   2.1097838332983E-03
(PID.TID 0000.0001) %MON exf_wspeed_max               =   2.0676576344075E+01
(PID.TID 0000.0001) %MON exf_wspeed_min               =   2.9018476250048E-03
(PID.TID 0000.0001) %MON exf_wspeed_mean              =   7.7680384764059E+00
(PID.TID 0000.0001) %MON exf_wspeed_sd                =   4.3453310951480E+00
(PID.TID 0000.0001) %MON exf_wspeed_del2              =   3.5460625747995E-03
(PID.TID 0000.0001) %MON exf_atemp_max                =   2.9817782416526E+02
(PID.TID 0000.0001) %MON exf_atemp_min                =   2.7455175867563E+02
(PID.TID 0000.0001) %MON exf_atemp_mean               =   2.9070214679347E+02
(PID.TID 0000.0001) %MON exf_atemp_sd                 =   3.9454298781272E+00
(PID.TID 0000.0001) %MON exf_atemp_del2               =   6.8498006926938E-03
(PID.TID 0000.0001) %MON exf_aqh_max                  =   1.6822475533329E-02
(PID.TID 0000.0001) %MON exf_aqh_min                  =   2.7400629324803E-03
(PID.TID 0000.0001) %MON exf_aqh_mean                 =   9.4287725015436E-03
(PID.TID 0000.0001) %MON exf_aqh_sd                   =   2.8741639256530E-03
(PID.TID 0000.0001) %MON exf_aqh_del2                 =   3.7536812242073E-06
(PID.TID 0000.0001) %MON exf_lwflux_max               =   1.5206774622875E+02
(PID.TID 0000.0001) %MON exf_lwflux_min               =   1.6673561113809E+01
(PID.TID 0000.0001) %MON exf_lwflux_mean              =   7.1263408871750E+01
(PID.TID 0000.0001) %MON exf_lwflux_sd                =   2.0933698112870E+01
(PID.TID 0000.0001) %MON exf_lwflux_del2              =   2.8556564443616E-02
(PID.TID 0000.0001) %MON exf_evap_max                 =   2.6993687419213E-07
(PID.TID 0000.0001) %MON exf_evap_min                 =  -9.0660349981682E-08
(PID.TID 0000.0001) %MON exf_evap_mean                =   5.9648131060218E-08
(PID.TID 0000.0001) %MON exf_evap_sd                  =   4.2509936626253E-08
(PID.TID 0000.0001) %MON exf_evap_del2                =   2.8749153024737E-11
(PID.TID 0000.0001) %MON exf_precip_max               =   9.4246541647784E-07
(PID.TID 0000.0001) %MON exf_precip_min               =   0.0000000000000E+00
(PID.TID 0000.0001) %MON exf_precip_mean              =   4.7164869294221E-08
(PID.TID 0000.0001) %MON exf_precip_sd                =   9.2958497283911E-08
(PID.TID 0000.0001) %MON exf_precip_del2              =   4.1544877787042E-11
(PID.TID 0000.0001) %MON exf_swflux_max               =   0.0000000000000E+00
(PID.TID 0000.0001) %MON exf_swflux_min               =   0.0000000000000E+00
(PID.TID 0000.0001) %MON exf_swflux_mean              =   0.0000000000000E+00
(PID.TID 0000.0001) %MON exf_swflux_sd                =   0.0000000000000E+00
(PID.TID 0000.0001) %MON exf_swflux_del2              =   0.0000000000000E+00
(PID.TID 0000.0001) %MON exf_swdown_max               =   0.0000000000000E+00
(PID.TID 0000.0001) %MON exf_swdown_min               =   0.0000000000000E+00
(PID.TID 0000.0001) %MON exf_swdown_mean              =   0.0000000000000E+00
(PID.TID 0000.0001) %MON exf_swdown_sd                =   0.0000000000000E+00
(PID.TID 0000.0001) %MON exf_swdown_del2              =   0.0000000000000E+00
(PID.TID 0000.0001) %MON exf_lwdown_max               =   3.9820518771429E+02
(PID.TID 0000.0001) %MON exf_lwdown_min               =   2.2735753040754E+02
(PID.TID 0000.0001) %MON exf_lwdown_mean              =   3.4365975552612E+02
(PID.TID 0000.0001) %MON exf_lwdown_sd                =   2.5519938563091E+01
(PID.TID 0000.0001) %MON exf_lwdown_del2              =   1.3287608044832E-01
(PID.TID 0000.0001) %MON exf_apressure_max            =   1.0278540583118E+05
(PID.TID 0000.0001) %MON exf_apressure_min            =   9.9972821377996E+04
(PID.TID 0000.0001) %MON exf_apressure_mean           =   1.0215907878038E+05
(PID.TID 0000.0001) %MON exf_apressure_sd             =   5.0098246938817E+02
(PID.TID 0000.0001) %MON exf_apressure_del2           =   3.9517258494995E+01
(PID.TID 0000.0001) %MON exf_runoff_max               =   4.4374791284855E-08
(PID.TID 0000.0001) %MON exf_runoff_min               =   0.0000000000000E+00
(PID.TID 0000.0001) %MON exf_runoff_mean              =   1.5884794052194E-09
(PID.TID 0000.0001) %MON exf_runoff_sd                =   5.3901957917178E-09
(PID.TID 0000.0001) %MON exf_runoff_del2              =   2.2191214937507E-12
(PID.TID 0000.0001) // =======================================================
(PID.TID 0000.0001) // End MONITOR EXF statistics
(PID.TID 0000.0001) // =======================================================
(PID.TID 0000.0001) SOLVE_FOR_PRESSURE: putPmEinXvector =    F
 cg2d: Sum(rhs),rhsMax =   9.80964719690200E+01  6.01791901483901E-01
(PID.TID 0000.0001)      cg2d_init_res =   1.50150987835057E+01
(PID.TID 0000.0001)      cg2d_iters(min,last) =      -1     324
(PID.TID 0000.0001)      cg2d_last_res =   6.63915255559102E-12
(PID.TID 0000.0001) // =======================================================
(PID.TID 0000.0001) // Begin MONITOR dynamic field statistics
(PID.TID 0000.0001) // =======================================================
(PID.TID 0000.0001) %MON time_tsnumber                =                     1
(PID.TID 0000.0001) %MON time_secondsf                =   2.4000000000000E+02
(PID.TID 0000.0001) %MON dynstat_eta_max              =   1.2814380169250E+00
(PID.TID 0000.0001) %MON dynstat_eta_min              =  -1.3567640528619E+00
(PID.TID 0000.0001) %MON dynstat_eta_mean             =  -3.3359766392908E-03
(PID.TID 0000.0001) %MON dynstat_eta_sd               =   5.9900069988874E-02
(PID.TID 0000.0001) %MON dynstat_eta_del2             =   7.7654639808102E-06
(PID.TID 0000.0001) %MON dynstat_uvel_max             =   1.2718059770297E+00
(PID.TID 0000.0001) %MON dynstat_uvel_min             =  -6.9993271560426E-01
(PID.TID 0000.0001) %MON dynstat_uvel_mean            =   3.8456992036222E-03
(PID.TID 0000.0001) %MON dynstat_uvel_sd              =   5.2155306429040E-02
(PID.TID 0000.0001) %MON dynstat_uvel_del2            =   4.4049920661221E-07
(PID.TID 0000.0001) %MON dynstat_vvel_max             =   1.7886113599830E+00
(PID.TID 0000.0001) %MON dynstat_vvel_min             =  -8.8816891487375E-01
(PID.TID 0000.0001) %MON dynstat_vvel_mean            =  -1.3525230322994E-03
(PID.TID 0000.0001) %MON dynstat_vvel_sd              =   4.8149854720416E-02
(PID.TID 0000.0001) %MON dynstat_vvel_del2            =   4.1766325502863E-07
(PID.TID 0000.0001) %MON dynstat_wvel_max             =   3.6299474349036E-02
(PID.TID 0000.0001) %MON dynstat_wvel_min             =  -3.3452207146908E-02
(PID.TID 0000.0001) %MON dynstat_wvel_mean            =  -9.5685852926218E-06
(PID.TID 0000.0001) %MON dynstat_wvel_sd              =   5.9367107912411E-04
(PID.TID 0000.0001) %MON dynstat_wvel_del2            =   9.0442439549669E-08
(PID.TID 0000.0001) %MON dynstat_theta_max            =   2.6141614401897E+01
(PID.TID 0000.0001) %MON dynstat_theta_min            =   1.4688637760076E+00
(PID.TID 0000.0001) %MON dynstat_theta_mean           =   5.5098897637753E+00
(PID.TID 0000.0001) %MON dynstat_theta_sd             =   4.7735459894570E+00
(PID.TID 0000.0001) %MON dynstat_theta_del2           =   4.0030402034336E-06
(PID.TID 0000.0001) %MON dynstat_salt_max             =   3.9184249639887E+01
(PID.TID 0000.0001) %MON dynstat_salt_min             =   3.3090163422720E+01
(PID.TID 0000.0001) %MON dynstat_salt_mean            =   3.5173375265698E+01
(PID.TID 0000.0001) %MON dynstat_salt_sd              =   3.7892123468115E-01
(PID.TID 0000.0001) %MON dynstat_salt_del2            =   4.9486992364529E-07
(PID.TID 0000.0001) %MON forcing_qnet_max             =   1.1600978682955E+03
(PID.TID 0000.0001) %MON forcing_qnet_min             =  -2.5825650999885E+02
(PID.TID 0000.0001) %MON forcing_qnet_mean            =   2.4794884241977E+02
(PID.TID 0000.0001) %MON forcing_qnet_sd              =   1.4819370133206E+02
(PID.TID 0000.0001) %MON forcing_qnet_del2            =   1.7132848540217E-03
(PID.TID 0000.0001) %MON forcing_qsw_max              =   0.0000000000000E+00
(PID.TID 0000.0001) %MON forcing_qsw_min              =   0.0000000000000E+00
(PID.TID 0000.0001) %MON forcing_qsw_mean             =   0.0000000000000E+00
(PID.TID 0000.0001) %MON forcing_qsw_sd               =   0.0000000000000E+00
(PID.TID 0000.0001) %MON forcing_qsw_del2             =   0.0000000000000E+00
(PID.TID 0000.0001) %MON forcing_empmr_max            =   2.6342200134154E-04
(PID.TID 0000.0001) %MON forcing_empmr_min            =  -7.7122086946965E-04
(PID.TID 0000.0001) %MON forcing_empmr_mean           =   1.0894782360777E-05
(PID.TID 0000.0001) %MON forcing_empmr_sd             =   9.8849584327323E-05
(PID.TID 0000.0001) %MON forcing_empmr_del2           =   2.4614799622271E-09
(PID.TID 0000.0001) %MON forcing_fu_max               =   8.4361580056615E-01
(PID.TID 0000.0001) %MON forcing_fu_min               =  -4.3374691020423E-01
(PID.TID 0000.0001) %MON forcing_fu_mean              =   6.3300287683880E-02
(PID.TID 0000.0001) %MON forcing_fu_sd                =   1.5778452509305E-01
(PID.TID 0000.0001) %MON forcing_fu_del2              =   4.1491045434103E-07
(PID.TID 0000.0001) %MON forcing_fv_max               =   4.3246026434874E-01
(PID.TID 0000.0001) %MON forcing_fv_min               =  -5.7713032254385E-01
(PID.TID 0000.0001) %MON forcing_fv_mean              =   1.0747271807350E-02
(PID.TID 0000.0001) %MON forcing_fv_sd                =   1.0405890603910E-01
(PID.TID 0000.0001) %MON forcing_fv_del2              =   3.3375712466567E-07
(PID.TID 0000.0001) %MON trAdv_CFL_u_max              =   7.7151467554578E-02
(PID.TID 0000.0001) %MON trAdv_CFL_v_max              =   1.1353669061954E-01
(PID.TID 0000.0001) %MON trAdv_CFL_w_max              =   6.5333370924540E-01
(PID.TID 0000.0001) %MON advcfl_uvel_max              =   7.7151466504091E-02
(PID.TID 0000.0001) %MON advcfl_vvel_max              =   1.1357012462535E-01
(PID.TID 0000.0001) %MON advcfl_wvel_max              =   6.5333370924540E-01
(PID.TID 0000.0001) %MON advcfl_W_hf_max              =   6.5333370924540E-01
(PID.TID 0000.0001) %MON pe_b_mean                    =  -7.7621306800224E-05
(PID.TID 0000.0001) %MON ke_max                       =   1.6066777478680E+00
(PID.TID 0000.0001) %MON ke_mean                      =   2.5088857743132E-03
(PID.TID 0000.0001) %MON ke_vol                       =   4.5818637279721E+16
(PID.TID 0000.0001) %MON vort_r_min                   =  -3.7713623584701E-04
(PID.TID 0000.0001) %MON vort_r_max                   =   4.1361427434394E-04
(PID.TID 0000.0001) %MON vort_a_mean                  =   8.2147610577187E-05
(PID.TID 0000.0001) %MON vort_a_sd                    =   1.0118911614602E-05
(PID.TID 0000.0001) %MON vort_p_mean                  =   8.4848831474915E-05
(PID.TID 0000.0001) %MON vort_p_sd                    =   3.4987201380097E-05
(PID.TID 0000.0001) %MON surfExpan_theta_mean         =  -2.9021080667562E-04
(PID.TID 0000.0001) %MON surfExpan_salt_mean          =  -5.0366677093000E-04
(PID.TID 0000.0001) // =======================================================
(PID.TID 0000.0001) // End MONITOR dynamic field statistics
(PID.TID 0000.0001) // =======================================================
(PID.TID 0000.0001) // =======================================================
(PID.TID 0000.0001) // Begin OBCS MONITOR field statistics
(PID.TID 0000.0001) // =======================================================
(PID.TID 0000.0001) %MON obc_N_vVel_max               =   6.7978721768873E-01
(PID.TID 0000.0001) %MON obc_N_vVel_min               =  -6.9237447320337E-01
(PID.TID 0000.0001) %MON obc_N_vVel_mean              =  -5.6101108030399E-03
(PID.TID 0000.0001) %MON obc_N_vVel_sd                =   6.2747197235650E-02
(PID.TID 0000.0001) %MON obc_N_vVel_Int               =  -8.0309209990462E+07
(PID.TID 0000.0001) %MON obc_S_vVel_max               =   1.5863628537341E+00
(PID.TID 0000.0001) %MON obc_S_vVel_min               =  -2.5485070098726E-01
(PID.TID 0000.0001) %MON obc_S_vVel_mean              =  -7.7981554452808E-03
(PID.TID 0000.0001) %MON obc_S_vVel_sd                =   3.6983584486784E-02
(PID.TID 0000.0001) %MON obc_S_vVel_Int               =  -2.3739846385453E+08
(PID.TID 0000.0001) %MON obc_N_theta_max              =   1.6390772942977E+01
(PID.TID 0000.0001) %MON obc_N_theta_min              =   1.8895907760510E+00
(PID.TID 0000.0001) %MON obc_N_theta_mean             =   5.1589731177388E+00
(PID.TID 0000.0001) %MON obc_N_theta_sd               =   3.4827246474693E+00
(PID.TID 0000.0001) %MON obc_S_theta_max              =   2.5544838560027E+01
(PID.TID 0000.0001) %MON obc_S_theta_min              =   1.4632960371739E+00
(PID.TID 0000.0001) %MON obc_S_theta_mean             =   5.4595569751869E+00
(PID.TID 0000.0001) %MON obc_S_theta_sd               =   5.3559331643597E+00
(PID.TID 0000.0001) %MON obc_N_salt_max               =   3.5910867239595E+01
(PID.TID 0000.0001) %MON obc_N_salt_min               =   3.3295019572678E+01
(PID.TID 0000.0001) %MON obc_N_salt_mean              =   3.5114564020364E+01
(PID.TID 0000.0001) %MON obc_N_salt_sd                =   3.0984921004648E-01
(PID.TID 0000.0001) %MON obc_S_salt_max               =   3.7318339746237E+01
(PID.TID 0000.0001) %MON obc_S_salt_min               =   3.4844694366037E+01
(PID.TID 0000.0001) %MON obc_S_salt_mean              =   3.5168372866918E+01
(PID.TID 0000.0001) %MON obc_S_salt_sd                =   4.5717075679099E-01
(PID.TID 0000.0001) // =======================================================
(PID.TID 0000.0001) // End OBCS MONITOR field statistics
(PID.TID 0000.0001) // =======================================================
(PID.TID 0000.0001) // =======================================================
(PID.TID 0000.0001) // Begin MONITOR EXF statistics
(PID.TID 0000.0001) // =======================================================
(PID.TID 0000.0001) %MON exf_tsnumber                 =                     1
(PID.TID 0000.0001) %MON exf_time_sec                 =   2.4000000000000E+02
(PID.TID 0000.0001) %MON exf_ustress_max              =   8.3850091782501E-01
(PID.TID 0000.0001) %MON exf_ustress_min              =  -4.2947223205883E-01
(PID.TID 0000.0001) %MON exf_ustress_mean             =   6.3102083216459E-02
(PID.TID 0000.0001) %MON exf_ustress_sd               =   1.5693730737937E-01
(PID.TID 0000.0001) %MON exf_ustress_del2             =   4.3607403573647E-07
(PID.TID 0000.0001) %MON exf_vstress_max              =   4.1921416817703E-01
(PID.TID 0000.0001) %MON exf_vstress_min              =  -5.7236754122133E-01
(PID.TID 0000.0001) %MON exf_vstress_mean             =   1.0726880701491E-02
(PID.TID 0000.0001) %MON exf_vstress_sd               =   1.0321907040378E-01
(PID.TID 0000.0001) %MON exf_vstress_del2             =   3.2680201831612E-07
(PID.TID 0000.0001) %MON exf_hflux_max                =   1.1414716883345E+03
(PID.TID 0000.0001) %MON exf_hflux_min                =  -2.5657115123519E+02
(PID.TID 0000.0001) %MON exf_hflux_mean               =   2.4534387232736E+02
(PID.TID 0000.0001) %MON exf_hflux_sd                 =   1.4398741019351E+02
(PID.TID 0000.0001) %MON exf_hflux_del2               =   1.1163447716521E-01
(PID.TID 0000.0001) %MON exf_sflux_max                =   2.6217825056691E-07
(PID.TID 0000.0001) %MON exf_sflux_min                =  -8.9634406318678E-07
(PID.TID 0000.0001) %MON exf_sflux_mean               =   1.1723597428944E-08
(PID.TID 0000.0001) %MON exf_sflux_sd                 =   9.9262525046717E-08
(PID.TID 0000.0001) %MON exf_sflux_del2               =   3.9326029116883E-11
(PID.TID 0000.0001) %MON exf_uwind_max                =   1.9557581606263E+01
(PID.TID 0000.0001) %MON exf_uwind_min                =  -1.5156991268208E+01
(PID.TID 0000.0001) %MON exf_uwind_mean               =   2.4665532258591E+00
(PID.TID 0000.0001) %MON exf_uwind_sd                 =   6.6942616652278E+00
(PID.TID 0000.0001) %MON exf_uwind_del2               =   2.8473651815763E-03
(PID.TID 0000.0001) %MON exf_vwind_max                =   1.4720209719272E+01
(PID.TID 0000.0001) %MON exf_vwind_min                =  -1.2825820819161E+01
(PID.TID 0000.0001) %MON exf_vwind_mean               =   8.4719411179236E-01
(PID.TID 0000.0001) %MON exf_vwind_sd                 =   5.2291337701728E+00
(PID.TID 0000.0001) %MON exf_vwind_del2               =   2.1044086925706E-03
(PID.TID 0000.0001) %MON exf_wspeed_max               =   2.0599915764623E+01
(PID.TID 0000.0001) %MON exf_wspeed_min               =   1.3974432123453E-02
(PID.TID 0000.0001) %MON exf_wspeed_mean              =   7.7556663882258E+00
(PID.TID 0000.0001) %MON exf_wspeed_sd                =   4.3368468709992E+00
(PID.TID 0000.0001) %MON exf_wspeed_del2              =   3.5402618954237E-03
(PID.TID 0000.0001) %MON exf_atemp_max                =   2.9817562687684E+02
(PID.TID 0000.0001) %MON exf_atemp_min                =   2.7452615746699E+02
(PID.TID 0000.0001) %MON exf_atemp_mean               =   2.9069902558728E+02
(PID.TID 0000.0001) %MON exf_atemp_sd                 =   3.9447514879437E+00
(PID.TID 0000.0001) %MON exf_atemp_del2               =   6.8485074445547E-03
(PID.TID 0000.0001) %MON exf_aqh_max                  =   1.6815489232455E-02
(PID.TID 0000.0001) %MON exf_aqh_min                  =   2.7377682347164E-03
(PID.TID 0000.0001) %MON exf_aqh_mean                 =   9.4275843487295E-03
(PID.TID 0000.0001) %MON exf_aqh_sd                   =   2.8734848400241E-03
(PID.TID 0000.0001) %MON exf_aqh_del2                 =   3.7530606925921E-06
(PID.TID 0000.0001) %MON exf_lwflux_max               =   1.5159279032158E+02
(PID.TID 0000.0001) %MON exf_lwflux_min               =   1.6653091575544E+01
(PID.TID 0000.0001) %MON exf_lwflux_mean              =   7.0480750990441E+01
(PID.TID 0000.0001) %MON exf_lwflux_sd                =   2.0882645285653E+01
(PID.TID 0000.0001) %MON exf_lwflux_del2              =   2.8253313763253E-02
(PID.TID 0000.0001) %MON exf_evap_max                 =   2.6944455621346E-07
(PID.TID 0000.0001) %MON exf_evap_min                 =  -9.1095204961880E-08
(PID.TID 0000.0001) %MON exf_evap_mean                =   5.9553080299536E-08
(PID.TID 0000.0001) %MON exf_evap_sd                  =   4.2381771096987E-08
(PID.TID 0000.0001) %MON exf_evap_del2                =   2.8692905056764E-11
(PID.TID 0000.0001) %MON exf_precip_max               =   1.0681274720082E-06
(PID.TID 0000.0001) %MON exf_precip_min               =   0.0000000000000E+00
(PID.TID 0000.0001) %MON exf_precip_mean              =   4.6241003465373E-08
(PID.TID 0000.0001) %MON exf_precip_sd                =   9.5180213938007E-08
(PID.TID 0000.0001) %MON exf_precip_del2              =   4.2339359514858E-11
(PID.TID 0000.0001) %MON exf_swflux_max               =   0.0000000000000E+00
(PID.TID 0000.0001) %MON exf_swflux_min               =   0.0000000000000E+00
(PID.TID 0000.0001) %MON exf_swflux_mean              =   0.0000000000000E+00
(PID.TID 0000.0001) %MON exf_swflux_sd                =   0.0000000000000E+00
(PID.TID 0000.0001) %MON exf_swflux_del2              =   0.0000000000000E+00
(PID.TID 0000.0001) %MON exf_swdown_max               =   0.0000000000000E+00
(PID.TID 0000.0001) %MON exf_swdown_min               =   0.0000000000000E+00
(PID.TID 0000.0001) %MON exf_swdown_mean              =   0.0000000000000E+00
(PID.TID 0000.0001) %MON exf_swdown_sd                =   0.0000000000000E+00
(PID.TID 0000.0001) %MON exf_swdown_del2              =   0.0000000000000E+00
(PID.TID 0000.0001) %MON exf_lwdown_max               =   3.9865640868250E+02
(PID.TID 0000.0001) %MON exf_lwdown_min               =   2.2781411885010E+02
(PID.TID 0000.0001) %MON exf_lwdown_mean              =   3.4445380950638E+02
(PID.TID 0000.0001) %MON exf_lwdown_sd                =   2.5672720097867E+01
(PID.TID 0000.0001) %MON exf_lwdown_del2              =   1.3319097134729E-01
(PID.TID 0000.0001) %MON exf_apressure_max            =   1.0278691686358E+05
(PID.TID 0000.0001) %MON exf_apressure_min            =   9.9978539078627E+04
(PID.TID 0000.0001) %MON exf_apressure_mean           =   1.0215985608694E+05
(PID.TID 0000.0001) %MON exf_apressure_sd             =   5.0058207786859E+02
(PID.TID 0000.0001) %MON exf_apressure_del2           =   3.9517565334831E+01
(PID.TID 0000.0001) %MON exf_runoff_max               =   4.4374791284855E-08
(PID.TID 0000.0001) %MON exf_runoff_min               =   0.0000000000000E+00
(PID.TID 0000.0001) %MON exf_runoff_mean              =   1.5884794052194E-09
(PID.TID 0000.0001) %MON exf_runoff_sd                =   5.3901957917178E-09
(PID.TID 0000.0001) %MON exf_runoff_del2              =   2.2191214937507E-12
(PID.TID 0000.0001) // =======================================================
(PID.TID 0000.0001) // End MONITOR EXF statistics
(PID.TID 0000.0001) // =======================================================
 cg2d: Sum(rhs),rhsMax =   1.89181136875866E+02  1.13391675346165E-01
(PID.TID 0000.0001)      cg2d_init_res =   1.34702403887449E+01
(PID.TID 0000.0001)      cg2d_iters(min,last) =      -1     322
(PID.TID 0000.0001)      cg2d_last_res =   6.97790778166638E-12
(PID.TID 0000.0001) // =======================================================
(PID.TID 0000.0001) // Begin MONITOR dynamic field statistics
(PID.TID 0000.0001) // =======================================================
(PID.TID 0000.0001) %MON time_tsnumber                =                     2
(PID.TID 0000.0001) %MON time_secondsf                =   4.8000000000000E+02
(PID.TID 0000.0001) %MON dynstat_eta_max              =   1.4919863825313E+00
(PID.TID 0000.0001) %MON dynstat_eta_min              =  -1.1913329655410E+00
(PID.TID 0000.0001) %MON dynstat_eta_mean             =  -6.4335020469612E-03
(PID.TID 0000.0001) %MON dynstat_eta_sd               =   8.7634473744700E-02
(PID.TID 0000.0001) %MON dynstat_eta_del2             =   3.3741982612262E-06
(PID.TID 0000.0001) %MON dynstat_uvel_max             =   1.2822075642599E+00
(PID.TID 0000.0001) %MON dynstat_uvel_min             =  -7.0565323789397E-01
(PID.TID 0000.0001) %MON dynstat_uvel_mean            =   3.7436389143628E-03
(PID.TID 0000.0001) %MON dynstat_uvel_sd              =   5.2260412686023E-02
(PID.TID 0000.0001) %MON dynstat_uvel_del2            =   4.6129127129065E-07
(PID.TID 0000.0001) %MON dynstat_vvel_max             =   1.7992840043550E+00
(PID.TID 0000.0001) %MON dynstat_vvel_min             =  -8.9318075487083E-01
(PID.TID 0000.0001) %MON dynstat_vvel_mean            =  -2.4339079450593E-03
(PID.TID 0000.0001) %MON dynstat_vvel_sd              =   4.8053683382898E-02
(PID.TID 0000.0001) %MON dynstat_vvel_del2            =   4.2891934106556E-07
(PID.TID 0000.0001) %MON dynstat_wvel_max             =   3.7564486288739E-02
(PID.TID 0000.0001) %MON dynstat_wvel_min             =  -3.2825828879097E-02
(PID.TID 0000.0001) %MON dynstat_wvel_mean            =  -8.9755225915927E-06
(PID.TID 0000.0001) %MON dynstat_wvel_sd              =   5.8313485238675E-04
(PID.TID 0000.0001) %MON dynstat_wvel_del2            =   9.0223468206359E-08
(PID.TID 0000.0001) %MON dynstat_theta_max            =   2.6141387506562E+01
(PID.TID 0000.0001) %MON dynstat_theta_min            =   1.4688639462489E+00
(PID.TID 0000.0001) %MON dynstat_theta_mean           =   5.5098952686417E+00
(PID.TID 0000.0001) %MON dynstat_theta_sd             =   4.7735488036628E+00
(PID.TID 0000.0001) %MON dynstat_theta_del2           =   3.9941375667462E-06
(PID.TID 0000.0001) %MON dynstat_salt_max             =   3.9182777431591E+01
(PID.TID 0000.0001) %MON dynstat_salt_min             =   3.3090723532155E+01
(PID.TID 0000.0001) %MON dynstat_salt_mean            =   3.5173375579321E+01
(PID.TID 0000.0001) %MON dynstat_salt_sd              =   3.7892338865718E-01
(PID.TID 0000.0001) %MON dynstat_salt_del2            =   4.9502549367410E-07
(PID.TID 0000.0001) %MON forcing_qnet_max             =   1.1590193138639E+03
(PID.TID 0000.0001) %MON forcing_qnet_min             =  -2.6186848473466E+02
(PID.TID 0000.0001) %MON forcing_qnet_mean            =   2.4696676052501E+02
(PID.TID 0000.0001) %MON forcing_qnet_sd              =   1.4698750630381E+02
(PID.TID 0000.0001) %MON forcing_qnet_del2            =   1.7025424732554E-03
(PID.TID 0000.0001) %MON forcing_qsw_max              =   0.0000000000000E+00
(PID.TID 0000.0001) %MON forcing_qsw_min              =   0.0000000000000E+00
(PID.TID 0000.0001) %MON forcing_qsw_mean             =   0.0000000000000E+00
(PID.TID 0000.0001) %MON forcing_qsw_sd               =   0.0000000000000E+00
(PID.TID 0000.0001) %MON forcing_qsw_del2             =   0.0000000000000E+00
(PID.TID 0000.0001) %MON forcing_empmr_max            =   2.6217825056691E-04
(PID.TID 0000.0001) %MON forcing_empmr_min            =  -8.9634406318678E-04
(PID.TID 0000.0001) %MON forcing_empmr_mean           =   1.1723597428944E-05
(PID.TID 0000.0001) %MON forcing_empmr_sd             =   9.9262525046717E-05
(PID.TID 0000.0001) %MON forcing_empmr_del2           =   2.4829961210306E-09
(PID.TID 0000.0001) %MON forcing_fu_max               =   8.3773498352282E-01
(PID.TID 0000.0001) %MON forcing_fu_min               =  -4.2944459550505E-01
(PID.TID 0000.0001) %MON forcing_fu_mean              =   6.3158543364071E-02
(PID.TID 0000.0001) %MON forcing_fu_sd                =   1.5699581006428E-01
(PID.TID 0000.0001) %MON forcing_fu_del2              =   3.9855182017878E-07
(PID.TID 0000.0001) %MON forcing_fv_max               =   4.1893229626915E-01
(PID.TID 0000.0001) %MON forcing_fv_min               =  -5.7421698000051E-01
(PID.TID 0000.0001) %MON forcing_fv_mean              =   1.0707286521645E-02
(PID.TID 0000.0001) %MON forcing_fv_sd                =   1.0334682887440E-01
(PID.TID 0000.0001) %MON forcing_fv_del2              =   3.0706727034732E-07
(PID.TID 0000.0001) %MON trAdv_CFL_u_max              =   7.7792511110369E-02
(PID.TID 0000.0001) %MON trAdv_CFL_v_max              =   1.1416268256315E-01
(PID.TID 0000.0001) %MON trAdv_CFL_w_max              =   5.1783472023935E-01
(PID.TID 0000.0001) %MON advcfl_uvel_max              =   7.7792510051154E-02
(PID.TID 0000.0001) %MON advcfl_vvel_max              =   1.1419625081749E-01
(PID.TID 0000.0001) %MON advcfl_wvel_max              =   5.1937132178309E-01
(PID.TID 0000.0001) %MON advcfl_W_hf_max              =   5.2091706976459E-01
(PID.TID 0000.0001) %MON pe_b_mean                    =  -1.4871541473856E-04
(PID.TID 0000.0001) %MON ke_max                       =   1.6220008088431E+00
(PID.TID 0000.0001) %MON ke_mean                      =   2.5113838375056E-03
(PID.TID 0000.0001) %MON ke_vol                       =   4.5818637279721E+16
(PID.TID 0000.0001) %MON vort_r_min                   =  -4.3559679615434E-04
(PID.TID 0000.0001) %MON vort_r_max                   =   4.3737247218701E-04
(PID.TID 0000.0001) %MON vort_a_mean                  =   8.2147610692203E-05
(PID.TID 0000.0001) %MON vort_a_sd                    =   1.0121800887976E-05
(PID.TID 0000.0001) %MON vort_p_mean                  =   8.4848831593712E-05
(PID.TID 0000.0001) %MON vort_p_sd                    =   3.4987535342889E-05
(PID.TID 0000.0001) %MON surfExpan_theta_mean         =  -2.3104998555125E-04
(PID.TID 0000.0001) %MON surfExpan_salt_mean          =  -4.6200208413428E-04
(PID.TID 0000.0001) // =======================================================
(PID.TID 0000.0001) // End MONITOR dynamic field statistics
(PID.TID 0000.0001) // =======================================================
(PID.TID 0000.0001) // =======================================================
(PID.TID 0000.0001) // Begin OBCS MONITOR field statistics
(PID.TID 0000.0001) // =======================================================
(PID.TID 0000.0001) %MON obc_N_vVel_max               =   6.7963789419452E-01
(PID.TID 0000.0001) %MON obc_N_vVel_min               =  -6.9658363096104E-01
(PID.TID 0000.0001) %MON obc_N_vVel_mean              =  -5.7597086185422E-03
(PID.TID 0000.0001) %MON obc_N_vVel_sd                =   6.2769378414376E-02
(PID.TID 0000.0001) %MON obc_N_vVel_Int               =  -8.2450715354807E+07
(PID.TID 0000.0001) %MON obc_S_vVel_max               =   1.5873792564477E+00
(PID.TID 0000.0001) %MON obc_S_vVel_min               =  -2.5464555465012E-01
(PID.TID 0000.0001) %MON obc_S_vVel_mean              =  -7.4996612671388E-03
(PID.TID 0000.0001) %MON obc_S_vVel_sd                =   3.6989620893183E-02
(PID.TID 0000.0001) %MON obc_S_vVel_Int               =  -2.2831143553641E+08
(PID.TID 0000.0001) %MON obc_N_theta_max              =   1.6390684840790E+01
(PID.TID 0000.0001) %MON obc_N_theta_min              =   1.8895908251163E+00
(PID.TID 0000.0001) %MON obc_N_theta_mean             =   5.1589657335888E+00
(PID.TID 0000.0001) %MON obc_N_theta_sd               =   3.4827153546990E+00
(PID.TID 0000.0001) %MON obc_S_theta_max              =   2.5544735811248E+01
(PID.TID 0000.0001) %MON obc_S_theta_min              =   1.4632964334612E+00
(PID.TID 0000.0001) %MON obc_S_theta_mean             =   5.4595561701623E+00
(PID.TID 0000.0001) %MON obc_S_theta_sd               =   5.3559292930331E+00
(PID.TID 0000.0001) %MON obc_N_salt_max               =   3.5910866831232E+01
(PID.TID 0000.0001) %MON obc_N_salt_min               =   3.3295025075312E+01
(PID.TID 0000.0001) %MON obc_N_salt_mean              =   3.5114563724377E+01
(PID.TID 0000.0001) %MON obc_N_salt_sd                =   3.0984909059289E-01
(PID.TID 0000.0001) %MON obc_S_salt_max               =   3.7318332861853E+01
(PID.TID 0000.0001) %MON obc_S_salt_min               =   3.4844694418258E+01
(PID.TID 0000.0001) %MON obc_S_salt_mean              =   3.5168372795001E+01
(PID.TID 0000.0001) %MON obc_S_salt_sd                =   4.5717040568239E-01
(PID.TID 0000.0001) // =======================================================
(PID.TID 0000.0001) // End OBCS MONITOR field statistics
(PID.TID 0000.0001) // =======================================================
(PID.TID 0000.0001) // =======================================================
(PID.TID 0000.0001) // Begin MONITOR EXF statistics
(PID.TID 0000.0001) // =======================================================
(PID.TID 0000.0001) %MON exf_tsnumber                 =                     2
(PID.TID 0000.0001) %MON exf_time_sec                 =   4.8000000000000E+02
(PID.TID 0000.0001) %MON exf_ustress_max              =   8.3831289146889E-01
(PID.TID 0000.0001) %MON exf_ustress_min              =  -4.2580711237378E-01
(PID.TID 0000.0001) %MON exf_ustress_mean             =   6.3014820178509E-02
(PID.TID 0000.0001) %MON exf_ustress_sd               =   1.5631862472985E-01
(PID.TID 0000.0001) %MON exf_ustress_del2             =   4.2112411847071E-07
(PID.TID 0000.0001) %MON exf_vstress_max              =   4.0927217938598E-01
(PID.TID 0000.0001) %MON exf_vstress_min              =  -5.6942660715512E-01
(PID.TID 0000.0001) %MON exf_vstress_mean             =   1.0706543172884E-02
(PID.TID 0000.0001) %MON exf_vstress_sd               =   1.0265678338605E-01
(PID.TID 0000.0001) %MON exf_vstress_del2             =   3.0600356231193E-07
(PID.TID 0000.0001) %MON exf_hflux_max                =   1.1410644830174E+03
(PID.TID 0000.0001) %MON exf_hflux_min                =  -2.6037276312489E+02
(PID.TID 0000.0001) %MON exf_hflux_mean               =   2.4435087928562E+02
(PID.TID 0000.0001) %MON exf_hflux_sd                 =   1.4315414263560E+02
(PID.TID 0000.0001) %MON exf_hflux_del2               =   1.1113379708687E-01
(PID.TID 0000.0001) %MON exf_sflux_max                =   2.6116477660053E-07
(PID.TID 0000.0001) %MON exf_sflux_min                =  -1.0214097399075E-06
(PID.TID 0000.0001) %MON exf_sflux_mean               =   1.2571774866979E-08
(PID.TID 0000.0001) %MON exf_sflux_sd                 =   1.0126597301389E-07
(PID.TID 0000.0001) %MON exf_sflux_del2               =   4.0285937074706E-11
(PID.TID 0000.0001) %MON exf_uwind_max                =   1.9567174667712E+01
(PID.TID 0000.0001) %MON exf_uwind_min                =  -1.5111886924797E+01
(PID.TID 0000.0001) %MON exf_uwind_mean               =   2.4675930423701E+00
(PID.TID 0000.0001) %MON exf_uwind_sd                 =   6.6870889332919E+00
(PID.TID 0000.0001) %MON exf_uwind_del2               =   2.8447924350591E-03
(PID.TID 0000.0001) %MON exf_vwind_max                =   1.4603460457114E+01
(PID.TID 0000.0001) %MON exf_vwind_min                =  -1.2808500049691E+01
(PID.TID 0000.0001) %MON exf_vwind_mean               =   8.4958626800885E-01
(PID.TID 0000.0001) %MON exf_vwind_sd                 =   5.2165377297091E+00
(PID.TID 0000.0001) %MON exf_vwind_del2               =   2.0998546865659E-03
(PID.TID 0000.0001) %MON exf_wspeed_max               =   2.0538181410258E+01
(PID.TID 0000.0001) %MON exf_wspeed_min               =   1.4208992096916E-02
(PID.TID 0000.0001) %MON exf_wspeed_mean              =   7.7451875739972E+00
(PID.TID 0000.0001) %MON exf_wspeed_sd                =   4.3303932824140E+00
(PID.TID 0000.0001) %MON exf_wspeed_del2              =   3.5355074365390E-03
(PID.TID 0000.0001) %MON exf_atemp_max                =   2.9817342958842E+02
(PID.TID 0000.0001) %MON exf_atemp_min                =   2.7450055625835E+02
(PID.TID 0000.0001) %MON exf_atemp_mean               =   2.9069590438109E+02
(PID.TID 0000.0001) %MON exf_atemp_sd                 =   3.9442154521307E+00
(PID.TID 0000.0001) %MON exf_atemp_del2               =   6.8472278878904E-03
(PID.TID 0000.0001) %MON exf_aqh_max                  =   1.6808502931582E-02
(PID.TID 0000.0001) %MON exf_aqh_min                  =   2.7354735369524E-03
(PID.TID 0000.0001) %MON exf_aqh_mean                 =   9.4263961959154E-03
(PID.TID 0000.0001) %MON exf_aqh_sd                   =   2.8729783809480E-03
(PID.TID 0000.0001) %MON exf_aqh_del2                 =   3.7524618969282E-06
(PID.TID 0000.0001) %MON exf_lwflux_max               =   1.5112484710508E+02
(PID.TID 0000.0001) %MON exf_lwflux_min               =   1.5989252230487E+01
(PID.TID 0000.0001) %MON exf_lwflux_mean              =   6.9700607293237E+01
(PID.TID 0000.0001) %MON exf_lwflux_sd                =   2.1124412123129E+01
(PID.TID 0000.0001) %MON exf_lwflux_del2              =   2.7984827061916E-02
(PID.TID 0000.0001) %MON exf_evap_max                 =   2.7063959163046E-07
(PID.TID 0000.0001) %MON exf_evap_min                 =  -9.1554994778399E-08
(PID.TID 0000.0001) %MON exf_evap_mean                =   5.9477391908722E-08
(PID.TID 0000.0001) %MON exf_evap_sd                  =   4.2281389107865E-08
(PID.TID 0000.0001) %MON exf_evap_del2                =   2.8649538730194E-11
(PID.TID 0000.0001) %MON exf_precip_max               =   1.1937895275386E-06
(PID.TID 0000.0001) %MON exf_precip_min               =   0.0000000000000E+00
(PID.TID 0000.0001) %MON exf_precip_mean              =   4.5317137636524E-08
(PID.TID 0000.0001) %MON exf_precip_sd                =   9.8966652401900E-08
(PID.TID 0000.0001) %MON exf_precip_del2              =   4.3705556140304E-11
(PID.TID 0000.0001) %MON exf_swflux_max               =   0.0000000000000E+00
(PID.TID 0000.0001) %MON exf_swflux_min               =   0.0000000000000E+00
(PID.TID 0000.0001) %MON exf_swflux_mean              =   0.0000000000000E+00
(PID.TID 0000.0001) %MON exf_swflux_sd                =   0.0000000000000E+00
(PID.TID 0000.0001) %MON exf_swflux_del2              =   0.0000000000000E+00
(PID.TID 0000.0001) %MON exf_swdown_max               =   0.0000000000000E+00
(PID.TID 0000.0001) %MON exf_swdown_min               =   0.0000000000000E+00
(PID.TID 0000.0001) %MON exf_swdown_mean              =   0.0000000000000E+00
(PID.TID 0000.0001) %MON exf_swdown_sd                =   0.0000000000000E+00
(PID.TID 0000.0001) %MON exf_swdown_del2              =   0.0000000000000E+00
(PID.TID 0000.0001) %MON exf_lwdown_max               =   3.9916214768056E+02
(PID.TID 0000.0001) %MON exf_lwdown_min               =   2.2827070729266E+02
(PID.TID 0000.0001) %MON exf_lwdown_mean              =   3.4524786348664E+02
(PID.TID 0000.0001) %MON exf_lwdown_sd                =   2.6075858085817E+01
(PID.TID 0000.0001) %MON exf_lwdown_del2              =   1.3351334749920E-01
(PID.TID 0000.0001) %MON exf_apressure_max            =   1.0278842789597E+05
(PID.TID 0000.0001) %MON exf_apressure_min            =   9.9983892237062E+04
(PID.TID 0000.0001) %MON exf_apressure_mean           =   1.0216063339349E+05
(PID.TID 0000.0001) %MON exf_apressure_sd             =   5.0022107601393E+02
(PID.TID 0000.0001) %MON exf_apressure_del2           =   3.9517872256091E+01
(PID.TID 0000.0001) %MON exf_runoff_max               =   4.4374791284855E-08
(PID.TID 0000.0001) %MON exf_runoff_min               =   0.0000000000000E+00
(PID.TID 0000.0001) %MON exf_runoff_mean              =   1.5884794052194E-09
(PID.TID 0000.0001) %MON exf_runoff_sd                =   5.3901957917178E-09
(PID.TID 0000.0001) %MON exf_runoff_del2              =   2.2191214937507E-12
(PID.TID 0000.0001) // =======================================================
(PID.TID 0000.0001) // End MONITOR EXF statistics
(PID.TID 0000.0001) // =======================================================
 cg2d: Sum(rhs),rhsMax =   2.73137913245372E+02  1.74319699793251E-01
(PID.TID 0000.0001)      cg2d_init_res =   3.14755990314336E+00
(PID.TID 0000.0001)      cg2d_iters(min,last) =      -1     320
(PID.TID 0000.0001)      cg2d_last_res =   6.76124730290322E-12
(PID.TID 0000.0001) // =======================================================
(PID.TID 0000.0001) // Begin MONITOR dynamic field statistics
(PID.TID 0000.0001) // =======================================================
(PID.TID 0000.0001) %MON time_tsnumber                =                     3
(PID.TID 0000.0001) %MON time_secondsf                =   7.2000000000000E+02
(PID.TID 0000.0001) %MON dynstat_eta_max              =   1.4688850959982E+00
(PID.TID 0000.0001) %MON dynstat_eta_min              =  -8.6742544475737E-01
(PID.TID 0000.0001) %MON dynstat_eta_mean             =  -9.2886286285499E-03
(PID.TID 0000.0001) %MON dynstat_eta_sd               =   1.1398863809194E-01
(PID.TID 0000.0001) %MON dynstat_eta_del2             =   2.8468865681903E-06
(PID.TID 0000.0001) %MON dynstat_uvel_max             =   1.2896872136578E+00
(PID.TID 0000.0001) %MON dynstat_uvel_min             =  -7.0539832160098E-01
(PID.TID 0000.0001) %MON dynstat_uvel_mean            =   3.5949971384453E-03
(PID.TID 0000.0001) %MON dynstat_uvel_sd              =   5.2329963535768E-02
(PID.TID 0000.0001) %MON dynstat_uvel_del2            =   4.6128996994288E-07
(PID.TID 0000.0001) %MON dynstat_vvel_max             =   1.8125980757817E+00
(PID.TID 0000.0001) %MON dynstat_vvel_min             =  -8.9822821728547E-01
(PID.TID 0000.0001) %MON dynstat_vvel_mean            =  -3.4483678155407E-03
(PID.TID 0000.0001) %MON dynstat_vvel_sd              =   4.8008732115998E-02
(PID.TID 0000.0001) %MON dynstat_vvel_del2            =   4.2553674562974E-07
(PID.TID 0000.0001) %MON dynstat_wvel_max             =   3.7202168627681E-02
(PID.TID 0000.0001) %MON dynstat_wvel_min             =  -3.2622598053403E-02
(PID.TID 0000.0001) %MON dynstat_wvel_mean            =  -8.3711598987265E-06
(PID.TID 0000.0001) %MON dynstat_wvel_sd              =   5.8787848036016E-04
(PID.TID 0000.0001) %MON dynstat_wvel_del2            =   8.9020479263630E-08
(PID.TID 0000.0001) %MON dynstat_theta_max            =   2.6141092765122E+01
(PID.TID 0000.0001) %MON dynstat_theta_min            =   1.4688641048998E+00
(PID.TID 0000.0001) %MON dynstat_theta_mean           =   5.5098987078944E+00
(PID.TID 0000.0001) %MON dynstat_theta_sd             =   4.7735466425656E+00
(PID.TID 0000.0001) %MON dynstat_theta_del2           =   3.9898258457684E-06
(PID.TID 0000.0001) %MON dynstat_salt_max             =   3.9180974990976E+01
(PID.TID 0000.0001) %MON dynstat_salt_min             =   3.3091321179406E+01
(PID.TID 0000.0001) %MON dynstat_salt_mean            =   3.5173375659304E+01
(PID.TID 0000.0001) %MON dynstat_salt_sd              =   3.7892486382410E-01
(PID.TID 0000.0001) %MON dynstat_salt_del2            =   4.9651161147891E-07
(PID.TID 0000.0001) %MON forcing_qnet_max             =   1.1587109008736E+03
(PID.TID 0000.0001) %MON forcing_qnet_min             =  -2.6557416066624E+02
(PID.TID 0000.0001) %MON forcing_qnet_mean            =   2.4604998809995E+02
(PID.TID 0000.0001) %MON forcing_qnet_sd              =   1.4592333283521E+02
(PID.TID 0000.0001) %MON forcing_qnet_del2            =   1.6908952240069E-03
(PID.TID 0000.0001) %MON forcing_qsw_max              =   0.0000000000000E+00
(PID.TID 0000.0001) %MON forcing_qsw_min              =   0.0000000000000E+00
(PID.TID 0000.0001) %MON forcing_qsw_mean             =   0.0000000000000E+00
(PID.TID 0000.0001) %MON forcing_qsw_sd               =   0.0000000000000E+00
(PID.TID 0000.0001) %MON forcing_qsw_del2             =   0.0000000000000E+00
(PID.TID 0000.0001) %MON forcing_empmr_max            =   2.6116477660053E-04
(PID.TID 0000.0001) %MON forcing_empmr_min            =  -1.0214097399075E-03
(PID.TID 0000.0001) %MON forcing_empmr_mean           =   1.2571774866979E-05
(PID.TID 0000.0001) %MON forcing_empmr_sd             =   1.0126597301389E-04
(PID.TID 0000.0001) %MON forcing_empmr_del2           =   2.5459117501136E-09
(PID.TID 0000.0001) %MON forcing_fu_max               =   8.3676625881943E-01
(PID.TID 0000.0001) %MON forcing_fu_min               =  -4.2573458794301E-01
(PID.TID 0000.0001) %MON forcing_fu_mean              =   6.3071602855436E-02
(PID.TID 0000.0001) %MON forcing_fu_sd                =   1.5637737048113E-01
(PID.TID 0000.0001) %MON forcing_fu_del2              =   3.8087651741429E-07
(PID.TID 0000.0001) %MON forcing_fv_max               =   4.0882540266241E-01
(PID.TID 0000.0001) %MON forcing_fv_min               =  -5.7175406214058E-01
(PID.TID 0000.0001) %MON forcing_fv_mean              =   1.0687140665911E-02
(PID.TID 0000.0001) %MON forcing_fv_sd                =   1.0278542419827E-01
(PID.TID 0000.0001) %MON forcing_fv_del2              =   2.8570052810816E-07
(PID.TID 0000.0001) %MON trAdv_CFL_u_max              =   7.8246307145511E-02
(PID.TID 0000.0001) %MON trAdv_CFL_v_max              =   1.1500036600116E-01
(PID.TID 0000.0001) %MON trAdv_CFL_w_max              =   5.0132236181627E-01
(PID.TID 0000.0001) %MON advcfl_uvel_max              =   7.8246306080117E-02
(PID.TID 0000.0001) %MON advcfl_vvel_max              =   1.1503418056690E-01
(PID.TID 0000.0001) %MON advcfl_wvel_max              =   5.0280996526380E-01
(PID.TID 0000.0001) %MON advcfl_W_hf_max              =   5.0430642349375E-01
(PID.TID 0000.0001) %MON pe_b_mean                    =  -2.1231947283046E-04
(PID.TID 0000.0001) %MON ke_max                       =   1.6453136886443E+00
(PID.TID 0000.0001) %MON ke_mean                      =   2.5152736246963E-03
(PID.TID 0000.0001) %MON ke_vol                       =   4.5818637279721E+16
(PID.TID 0000.0001) %MON vort_r_min                   =  -4.8033773738197E-04
(PID.TID 0000.0001) %MON vort_r_max                   =   4.5493545885992E-04
(PID.TID 0000.0001) %MON vort_a_mean                  =   8.2147610822236E-05
(PID.TID 0000.0001) %MON vort_a_sd                    =   1.0122627660565E-05
(PID.TID 0000.0001) %MON vort_p_mean                  =   8.4848831728021E-05
(PID.TID 0000.0001) %MON vort_p_sd                    =   3.4986569668398E-05
(PID.TID 0000.0001) %MON surfExpan_theta_mean         =  -1.9024483711796E-04
(PID.TID 0000.0001) %MON surfExpan_salt_mean          =  -4.2245679714259E-04
(PID.TID 0000.0001) // =======================================================
(PID.TID 0000.0001) // End MONITOR dynamic field statistics
(PID.TID 0000.0001) // =======================================================
(PID.TID 0000.0001) // =======================================================
(PID.TID 0000.0001) // Begin OBCS MONITOR field statistics
(PID.TID 0000.0001) // =======================================================
(PID.TID 0000.0001) %MON obc_N_vVel_max               =   6.7948802758032E-01
(PID.TID 0000.0001) %MON obc_N_vVel_min               =  -7.0012079305096E-01
(PID.TID 0000.0001) %MON obc_N_vVel_mean              =  -5.9023789675231E-03
(PID.TID 0000.0001) %MON obc_N_vVel_sd                =   6.2789366247370E-02
(PID.TID 0000.0001) %MON obc_N_vVel_Int               =  -8.4493053450788E+07
(PID.TID 0000.0001) %MON obc_S_vVel_max               =   1.5883768337352E+00
(PID.TID 0000.0001) %MON obc_S_vVel_min               =  -2.5444471491703E-01
(PID.TID 0000.0001) %MON obc_S_vVel_mean              =  -7.1918034192174E-03
(PID.TID 0000.0001) %MON obc_S_vVel_sd                =   3.6994427662233E-02
(PID.TID 0000.0001) %MON obc_S_vVel_Int               =  -2.1893934995861E+08
(PID.TID 0000.0001) %MON obc_N_theta_max              =   1.6390596738603E+01
(PID.TID 0000.0001) %MON obc_N_theta_min              =   1.8895908741817E+00
(PID.TID 0000.0001) %MON obc_N_theta_mean             =   5.1589583494387E+00
(PID.TID 0000.0001) %MON obc_N_theta_sd               =   3.4827060621667E+00
(PID.TID 0000.0001) %MON obc_S_theta_max              =   2.5544633062468E+01
(PID.TID 0000.0001) %MON obc_S_theta_min              =   1.4632968297484E+00
(PID.TID 0000.0001) %MON obc_S_theta_mean             =   5.4595553651377E+00
(PID.TID 0000.0001) %MON obc_S_theta_sd               =   5.3559254217423E+00
(PID.TID 0000.0001) %MON obc_N_salt_max               =   3.5910866422869E+01
(PID.TID 0000.0001) %MON obc_N_salt_min               =   3.3295030577945E+01
(PID.TID 0000.0001) %MON obc_N_salt_mean              =   3.5114563428390E+01
(PID.TID 0000.0001) %MON obc_N_salt_sd                =   3.0984897117919E-01
(PID.TID 0000.0001) %MON obc_S_salt_max               =   3.7318325977469E+01
(PID.TID 0000.0001) %MON obc_S_salt_min               =   3.4844694470478E+01
(PID.TID 0000.0001) %MON obc_S_salt_mean              =   3.5168372723085E+01
(PID.TID 0000.0001) %MON obc_S_salt_sd                =   4.5717005458027E-01
(PID.TID 0000.0001) // =======================================================
(PID.TID 0000.0001) // End OBCS MONITOR field statistics
(PID.TID 0000.0001) // =======================================================
(PID.TID 0000.0001) // =======================================================
(PID.TID 0000.0001) // Begin MONITOR EXF statistics
(PID.TID 0000.0001) // =======================================================
(PID.TID 0000.0001) %MON exf_tsnumber                 =                     3
(PID.TID 0000.0001) %MON exf_time_sec                 =   7.2000000000000E+02
(PID.TID 0000.0001) %MON exf_ustress_max              =   8.3709720134350E-01
(PID.TID 0000.0001) %MON exf_ustress_min              =  -4.2256366256297E-01
(PID.TID 0000.0001) %MON exf_ustress_mean             =   6.2969647981437E-02
(PID.TID 0000.0001) %MON exf_ustress_sd               =   1.5583370994076E-01
(PID.TID 0000.0001) %MON exf_ustress_del2             =   4.0513940558900E-07
(PID.TID 0000.0001) %MON exf_vstress_max              =   4.0169513227338E-01
(PID.TID 0000.0001) %MON exf_vstress_min              =  -5.6691235528034E-01
(PID.TID 0000.0001) %MON exf_vstress_mean             =   1.0703349373981E-02
(PID.TID 0000.0001) %MON exf_vstress_sd               =   1.0221937788420E-01
(PID.TID 0000.0001) %MON exf_vstress_del2             =   2.8875247364817E-07
(PID.TID 0000.0001) %MON exf_hflux_max                =   1.1411801611848E+03
(PID.TID 0000.0001) %MON exf_hflux_min                =  -2.6427915061505E+02
(PID.TID 0000.0001) %MON exf_hflux_mean               =   2.4340619532831E+02
(PID.TID 0000.0001) %MON exf_hflux_sd                 =   1.4242411523435E+02
(PID.TID 0000.0001) %MON exf_hflux_del2               =   1.1066959995321E-01
(PID.TID 0000.0001) %MON exf_sflux_max                =   2.6023320492338E-07
(PID.TID 0000.0001) %MON exf_sflux_min                =  -1.1464376621577E-06
(PID.TID 0000.0001) %MON exf_sflux_mean               =   1.3434658945745E-08
(PID.TID 0000.0001) %MON exf_sflux_sd                 =   1.0476535270242E-07
(PID.TID 0000.0001) %MON exf_sflux_del2               =   4.1840687925497E-11
(PID.TID 0000.0001) %MON exf_uwind_max                =   1.9568471235591E+01
(PID.TID 0000.0001) %MON exf_uwind_min                =  -1.5072880158747E+01
(PID.TID 0000.0001) %MON exf_uwind_mean               =   2.4689492588904E+00
(PID.TID 0000.0001) %MON exf_uwind_sd                 =   6.6812583334608E+00
(PID.TID 0000.0001) %MON exf_uwind_del2               =   2.8427667164436E-03
(PID.TID 0000.0001) %MON exf_vwind_max                =   1.4511609780599E+01
(PID.TID 0000.0001) %MON exf_vwind_min                =  -1.2793605629359E+01
(PID.TID 0000.0001) %MON exf_vwind_mean               =   8.5197140422688E-01
(PID.TID 0000.0001) %MON exf_vwind_sd                 =   5.2058416298161E+00
(PID.TID 0000.0001) %MON exf_vwind_del2               =   2.0960518677487E-03
(PID.TID 0000.0001) %MON exf_wspeed_max               =   2.0482778343835E+01
(PID.TID 0000.0001) %MON exf_wspeed_min               =   3.7995323042839E-03
(PID.TID 0000.0001) %MON exf_wspeed_mean              =   7.7363387011682E+00
(PID.TID 0000.0001) %MON exf_wspeed_sd                =   4.3255784827660E+00
(PID.TID 0000.0001) %MON exf_wspeed_del2              =   3.5316380899214E-03
(PID.TID 0000.0001) %MON exf_atemp_max                =   2.9817123230001E+02
(PID.TID 0000.0001) %MON exf_atemp_min                =   2.7447495504971E+02
(PID.TID 0000.0001) %MON exf_atemp_mean               =   2.9069278317489E+02
(PID.TID 0000.0001) %MON exf_atemp_sd                 =   3.9438218287336E+00
(PID.TID 0000.0001) %MON exf_atemp_del2               =   6.8459620303780E-03
(PID.TID 0000.0001) %MON exf_aqh_max                  =   1.6801516630708E-02
(PID.TID 0000.0001) %MON exf_aqh_min                  =   2.7331788391884E-03
(PID.TID 0000.0001) %MON exf_aqh_mean                 =   9.4252080431013E-03
(PID.TID 0000.0001) %MON exf_aqh_sd                   =   2.8726446397291E-03
(PID.TID 0000.0001) %MON exf_aqh_del2                 =   3.7518848476227E-06
(PID.TID 0000.0001) %MON exf_lwflux_max               =   1.5079980655886E+02
(PID.TID 0000.0001) %MON exf_lwflux_min               =   1.3832299330641E+01
(PID.TID 0000.0001) %MON exf_lwflux_mean              =   6.8922149193202E+01
(PID.TID 0000.0001) %MON exf_lwflux_sd                =   2.1648928787362E+01
(PID.TID 0000.0001) %MON exf_lwflux_del2              =   2.7751736536076E-02
(PID.TID 0000.0001) %MON exf_evap_max                 =   2.7197200702354E-07
(PID.TID 0000.0001) %MON exf_evap_min                 =  -9.2043196118329E-08
(PID.TID 0000.0001) %MON exf_evap_mean                =   5.9416410158640E-08
(PID.TID 0000.0001) %MON exf_evap_sd                  =   4.2201816904168E-08
(PID.TID 0000.0001) %MON exf_evap_del2                =   2.8615908685880E-11
(PID.TID 0000.0001) %MON exf_precip_max               =   1.3194515830690E-06
(PID.TID 0000.0001) %MON exf_precip_min               =   0.0000000000000E+00
(PID.TID 0000.0001) %MON exf_precip_mean              =   4.4393271807676E-08
(PID.TID 0000.0001) %MON exf_precip_sd                =   1.0414728851172E-07
(PID.TID 0000.0001) %MON exf_precip_del2              =   4.5592101186006E-11
(PID.TID 0000.0001) %MON exf_swflux_max               =   0.0000000000000E+00
(PID.TID 0000.0001) %MON exf_swflux_min               =   0.0000000000000E+00
(PID.TID 0000.0001) %MON exf_swflux_mean              =   0.0000000000000E+00
(PID.TID 0000.0001) %MON exf_swflux_sd                =   0.0000000000000E+00
(PID.TID 0000.0001) %MON exf_swflux_del2              =   0.0000000000000E+00
(PID.TID 0000.0001) %MON exf_swdown_max               =   0.0000000000000E+00
(PID.TID 0000.0001) %MON exf_swdown_min               =   0.0000000000000E+00
(PID.TID 0000.0001) %MON exf_swdown_mean              =   0.0000000000000E+00
(PID.TID 0000.0001) %MON exf_swdown_sd                =   0.0000000000000E+00
(PID.TID 0000.0001) %MON exf_swdown_del2              =   0.0000000000000E+00
(PID.TID 0000.0001) %MON exf_lwdown_max               =   3.9966788667862E+02
(PID.TID 0000.0001) %MON exf_lwdown_min               =   2.2872729573522E+02
(PID.TID 0000.0001) %MON exf_lwdown_mean              =   3.4604191746690E+02
(PID.TID 0000.0001) %MON exf_lwdown_sd                =   2.6718022331913E+01
(PID.TID 0000.0001) %MON exf_lwdown_del2              =   1.3384315481687E-01
(PID.TID 0000.0001) %MON exf_apressure_max            =   1.0278993892836E+05
(PID.TID 0000.0001) %MON exf_apressure_min            =   9.9988779524667E+04
(PID.TID 0000.0001) %MON exf_apressure_mean           =   1.0216141070004E+05
(PID.TID 0000.0001) %MON exf_apressure_sd             =   4.9989954915976E+02
(PID.TID 0000.0001) %MON exf_apressure_del2           =   3.9518179258773E+01
(PID.TID 0000.0001) %MON exf_runoff_max               =   4.4374791284855E-08
(PID.TID 0000.0001) %MON exf_runoff_min               =   0.0000000000000E+00
(PID.TID 0000.0001) %MON exf_runoff_mean              =   1.5884794052194E-09
(PID.TID 0000.0001) %MON exf_runoff_sd                =   5.3901957917178E-09
(PID.TID 0000.0001) %MON exf_runoff_del2              =   2.2191214937507E-12
(PID.TID 0000.0001) // =======================================================
(PID.TID 0000.0001) // End MONITOR EXF statistics
(PID.TID 0000.0001) // =======================================================
 cg2d: Sum(rhs),rhsMax =   3.49859016588198E+02  2.27298068051923E-01
(PID.TID 0000.0001)      cg2d_init_res =   2.08205923693669E+00
(PID.TID 0000.0001)      cg2d_iters(min,last) =      -1     317
(PID.TID 0000.0001)      cg2d_last_res =   6.72397921974831E-12
(PID.TID 0000.0001) // =======================================================
(PID.TID 0000.0001) // Begin MONITOR dynamic field statistics
(PID.TID 0000.0001) // =======================================================
(PID.TID 0000.0001) %MON time_tsnumber                =                     4
(PID.TID 0000.0001) %MON time_secondsf                =   9.6000000000000E+02
(PID.TID 0000.0001) %MON dynstat_eta_max              =   1.4013107381931E+00
(PID.TID 0000.0001) %MON dynstat_eta_min              =  -7.7195074597887E-01
(PID.TID 0000.0001) %MON dynstat_eta_mean             =  -1.1897690946032E-02
(PID.TID 0000.0001) %MON dynstat_eta_sd               =   1.3605540601478E-01
(PID.TID 0000.0001) %MON dynstat_eta_del2             =   2.6720797348964E-06
(PID.TID 0000.0001) %MON dynstat_uvel_max             =   1.2944583715882E+00
(PID.TID 0000.0001) %MON dynstat_uvel_min             =  -7.0510486447551E-01
(PID.TID 0000.0001) %MON dynstat_uvel_mean            =   3.4005119599033E-03
(PID.TID 0000.0001) %MON dynstat_uvel_sd              =   5.2365376071265E-02
(PID.TID 0000.0001) %MON dynstat_uvel_del2            =   4.6248427109577E-07
(PID.TID 0000.0001) %MON dynstat_vvel_max             =   1.8273371599281E+00
(PID.TID 0000.0001) %MON dynstat_vvel_min             =  -9.0270696500681E-01
(PID.TID 0000.0001) %MON dynstat_vvel_mean            =  -4.3967851821298E-03
(PID.TID 0000.0001) %MON dynstat_vvel_sd              =   4.7995285889923E-02
(PID.TID 0000.0001) %MON dynstat_vvel_del2            =   4.2563402404742E-07
(PID.TID 0000.0001) %MON dynstat_wvel_max             =   3.7214853094512E-02
(PID.TID 0000.0001) %MON dynstat_wvel_min             =  -3.1709117023469E-02
(PID.TID 0000.0001) %MON dynstat_wvel_mean            =  -7.7561936223616E-06
(PID.TID 0000.0001) %MON dynstat_wvel_sd              =   5.8692939829454E-04
(PID.TID 0000.0001) %MON dynstat_wvel_del2            =   8.5402839873403E-08
(PID.TID 0000.0001) %MON dynstat_theta_max            =   2.6140743458100E+01
(PID.TID 0000.0001) %MON dynstat_theta_min            =   1.4688642508924E+00
(PID.TID 0000.0001) %MON dynstat_theta_mean           =   5.5099004311718E+00
(PID.TID 0000.0001) %MON dynstat_theta_sd             =   4.7735406742307E+00
(PID.TID 0000.0001) %MON dynstat_theta_del2           =   3.9893168133650E-06
(PID.TID 0000.0001) %MON dynstat_salt_max             =   3.9178855507266E+01
(PID.TID 0000.0001) %MON dynstat_salt_min             =   3.3091972227916E+01
(PID.TID 0000.0001) %MON dynstat_salt_mean            =   3.5173375563544E+01
(PID.TID 0000.0001) %MON dynstat_salt_sd              =   3.7892590456505E-01
(PID.TID 0000.0001) %MON dynstat_salt_del2            =   4.9905507006955E-07
(PID.TID 0000.0001) %MON forcing_qnet_max             =   1.1589360926912E+03
(PID.TID 0000.0001) %MON forcing_qnet_min             =  -2.6938588278952E+02
(PID.TID 0000.0001) %MON forcing_qnet_mean            =   2.4518304933012E+02
(PID.TID 0000.0001) %MON forcing_qnet_sd              =   1.4497661567101E+02
(PID.TID 0000.0001) %MON forcing_qnet_del2            =   1.6849708002870E-03
(PID.TID 0000.0001) %MON forcing_qsw_max              =   0.0000000000000E+00
(PID.TID 0000.0001) %MON forcing_qsw_min              =   0.0000000000000E+00
(PID.TID 0000.0001) %MON forcing_qsw_mean             =   0.0000000000000E+00
(PID.TID 0000.0001) %MON forcing_qsw_sd               =   0.0000000000000E+00
(PID.TID 0000.0001) %MON forcing_qsw_del2             =   0.0000000000000E+00
(PID.TID 0000.0001) %MON forcing_empmr_max            =   2.6023320492338E-04
(PID.TID 0000.0001) %MON forcing_empmr_min            =  -1.1464376621577E-03
(PID.TID 0000.0001) %MON forcing_empmr_mean           =   1.3434658945745E-05
(PID.TID 0000.0001) %MON forcing_empmr_sd             =   1.0476535270242E-04
(PID.TID 0000.0001) %MON forcing_empmr_del2           =   2.6475341968823E-09
(PID.TID 0000.0001) %MON forcing_fu_max               =   8.3508258067640E-01
(PID.TID 0000.0001) %MON forcing_fu_min               =  -4.2246337490899E-01
(PID.TID 0000.0001) %MON forcing_fu_mean              =   6.3026785099320E-02
(PID.TID 0000.0001) %MON forcing_fu_sd                =   1.5589269252230E-01
(PID.TID 0000.0001) %MON forcing_fu_del2              =   3.6390341633507E-07
(PID.TID 0000.0001) %MON forcing_fv_max               =   4.0124073551601E-01
(PID.TID 0000.0001) %MON forcing_fv_min               =  -5.6962938544205E-01
(PID.TID 0000.0001) %MON forcing_fv_mean              =   1.0684148365153E-02
(PID.TID 0000.0001) %MON forcing_fv_sd                =   1.0234872619790E-01
(PID.TID 0000.0001) %MON forcing_fv_del2              =   2.6857203760354E-07
(PID.TID 0000.0001) %MON trAdv_CFL_u_max              =   7.8535776937028E-02
(PID.TID 0000.0001) %MON trAdv_CFL_v_max              =   1.1591880290080E-01
(PID.TID 0000.0001) %MON trAdv_CFL_w_max              =   4.8279259961417E-01
(PID.TID 0000.0001) %MON advcfl_uvel_max              =   7.8535775867693E-02
(PID.TID 0000.0001) %MON advcfl_vvel_max              =   1.1595288752260E-01
(PID.TID 0000.0001) %MON advcfl_wvel_max              =   4.8422521860412E-01
(PID.TID 0000.0001) %MON advcfl_W_hf_max              =   4.8566636508806E-01
(PID.TID 0000.0001) %MON pe_b_mean                    =  -2.6957948292040E-04
(PID.TID 0000.0001) %MON ke_max                       =   1.6718581017062E+00
(PID.TID 0000.0001) %MON ke_mean                      =   2.5194977242958E-03
(PID.TID 0000.0001) %MON ke_vol                       =   4.5818637279721E+16
(PID.TID 0000.0001) %MON vort_r_min                   =  -5.0928484364963E-04
(PID.TID 0000.0001) %MON vort_r_max                   =   4.7107430629045E-04
(PID.TID 0000.0001) %MON vort_a_mean                  =   8.2147610967203E-05
(PID.TID 0000.0001) %MON vort_a_sd                    =   1.0123853490908E-05
(PID.TID 0000.0001) %MON vort_p_mean                  =   8.4848831877756E-05
(PID.TID 0000.0001) %MON vort_p_sd                    =   3.4986489616727E-05
(PID.TID 0000.0001) %MON surfExpan_theta_mean         =  -1.5528045537711E-04
(PID.TID 0000.0001) %MON surfExpan_salt_mean          =  -3.8335147857330E-04
(PID.TID 0000.0001) // =======================================================
(PID.TID 0000.0001) // End MONITOR dynamic field statistics
(PID.TID 0000.0001) // =======================================================
(PID.TID 0000.0001) // =======================================================
(PID.TID 0000.0001) // Begin OBCS MONITOR field statistics
(PID.TID 0000.0001) // =======================================================
(PID.TID 0000.0001) %MON obc_N_vVel_max               =   6.7935081494701E-01
(PID.TID 0000.0001) %MON obc_N_vVel_min               =  -7.0298213639167E-01
(PID.TID 0000.0001) %MON obc_N_vVel_mean              =  -6.0379152164754E-03
(PID.TID 0000.0001) %MON obc_N_vVel_sd                =   6.2807047855671E-02
(PID.TID 0000.0001) %MON obc_N_vVel_Int               =  -8.6433266302294E+07
(PID.TID 0000.0001) %MON obc_S_vVel_max               =   1.5893544581872E+00
(PID.TID 0000.0001) %MON obc_S_vVel_min               =  -2.5424868191598E-01
(PID.TID 0000.0001) %MON obc_S_vVel_mean              =  -6.8749211796744E-03
(PID.TID 0000.0001) %MON obc_S_vVel_sd                =   3.6998048281814E-02
(PID.TID 0000.0001) %MON obc_S_vVel_Int               =  -2.0929253573207E+08
(PID.TID 0000.0001) %MON obc_N_theta_max              =   1.6390508636415E+01
(PID.TID 0000.0001) %MON obc_N_theta_min              =   1.8895909232471E+00
(PID.TID 0000.0001) %MON obc_N_theta_mean             =   5.1589509652887E+00
(PID.TID 0000.0001) %MON obc_N_theta_sd               =   3.4826967698724E+00
(PID.TID 0000.0001) %MON obc_S_theta_max              =   2.5544530313689E+01
(PID.TID 0000.0001) %MON obc_S_theta_min              =   1.4632972260357E+00
(PID.TID 0000.0001) %MON obc_S_theta_mean             =   5.4595545601131E+00
(PID.TID 0000.0001) %MON obc_S_theta_sd               =   5.3559215504875E+00
(PID.TID 0000.0001) %MON obc_N_salt_max               =   3.5910866014505E+01
(PID.TID 0000.0001) %MON obc_N_salt_min               =   3.3295036080578E+01
(PID.TID 0000.0001) %MON obc_N_salt_mean              =   3.5114563132404E+01
(PID.TID 0000.0001) %MON obc_N_salt_sd                =   3.0984885180316E-01
(PID.TID 0000.0001) %MON obc_S_salt_max               =   3.7318319093085E+01
(PID.TID 0000.0001) %MON obc_S_salt_min               =   3.4844694522698E+01
(PID.TID 0000.0001) %MON obc_S_salt_mean              =   3.5168372651168E+01
(PID.TID 0000.0001) %MON obc_S_salt_sd                =   4.5716970348508E-01
(PID.TID 0000.0001) // =======================================================
(PID.TID 0000.0001) // End OBCS MONITOR field statistics
(PID.TID 0000.0001) // =======================================================
(PID.TID 0000.0001) // =======================================================
(PID.TID 0000.0001) // Begin MONITOR EXF statistics
(PID.TID 0000.0001) // =======================================================
(PID.TID 0000.0001) %MON exf_tsnumber                 =                     4
(PID.TID 0000.0001) %MON exf_time_sec                 =   9.6000000000000E+02
(PID.TID 0000.0001) %MON exf_ustress_max              =   8.3622818049839E-01
(PID.TID 0000.0001) %MON exf_ustress_min              =  -4.1945629458101E-01
(PID.TID 0000.0001) %MON exf_ustress_mean             =   6.2959926386078E-02
(PID.TID 0000.0001) %MON exf_ustress_sd               =   1.5546020617029E-01
(PID.TID 0000.0001) %MON exf_ustress_del2             =   3.9302384051100E-07
(PID.TID 0000.0001) %MON exf_vstress_max              =   3.9639057093235E-01
(PID.TID 0000.0001) %MON exf_vstress_min              =  -5.6488485489280E-01
(PID.TID 0000.0001) %MON exf_vstress_mean             =   1.0715688692836E-02
(PID.TID 0000.0001) %MON exf_vstress_sd               =   1.0188849660153E-01
(PID.TID 0000.0001) %MON exf_vstress_del2             =   2.7612655640090E-07
(PID.TID 0000.0001) %MON exf_hflux_max                =   1.1440148558045E+03
(PID.TID 0000.0001) %MON exf_hflux_min                =  -2.6834703269145E+02
(PID.TID 0000.0001) %MON exf_hflux_mean               =   2.4249932500153E+02
(PID.TID 0000.0001) %MON exf_hflux_sd                 =   1.4178482772361E+02
(PID.TID 0000.0001) %MON exf_hflux_del2               =   1.1023825812925E-01
(PID.TID 0000.0001) %MON exf_sflux_max                =   2.5934626503663E-07
(PID.TID 0000.0001) %MON exf_sflux_min                =  -1.2714458049730E-06
(PID.TID 0000.0001) %MON exf_sflux_mean               =   1.4309457455295E-08
(PID.TID 0000.0001) %MON exf_sflux_sd                 =   1.0961566600576E-07
(PID.TID 0000.0001) %MON exf_sflux_del2               =   4.3926493779939E-11
(PID.TID 0000.0001) %MON exf_uwind_max                =   1.9572325838724E+01
(PID.TID 0000.0001) %MON exf_uwind_min                =  -1.5035563416705E+01
(PID.TID 0000.0001) %MON exf_uwind_mean               =   2.4705130514314E+00
(PID.TID 0000.0001) %MON exf_uwind_sd                 =   6.6765568788452E+00
(PID.TID 0000.0001) %MON exf_uwind_del2               =   2.8411983983953E-03
(PID.TID 0000.0001) %MON exf_vwind_max                =   1.4442436553162E+01
(PID.TID 0000.0001) %MON exf_vwind_min                =  -1.2781316138324E+01
(PID.TID 0000.0001) %MON exf_vwind_mean               =   8.5434225532869E-01
(PID.TID 0000.0001) %MON exf_vwind_sd                 =   5.1969058459532E+00
(PID.TID 0000.0001) %MON exf_vwind_del2               =   2.0929542312100E-03
(PID.TID 0000.0001) %MON exf_wspeed_max               =   2.0434460107060E+01
(PID.TID 0000.0001) %MON exf_wspeed_min               =   2.0722656824203E-02
(PID.TID 0000.0001) %MON exf_wspeed_mean              =   7.7289533095602E+00
(PID.TID 0000.0001) %MON exf_wspeed_sd                =   4.3221358485508E+00
(PID.TID 0000.0001) %MON exf_wspeed_del2              =   3.5285530952121E-03
(PID.TID 0000.0001) %MON exf_atemp_max                =   2.9816903501159E+02
(PID.TID 0000.0001) %MON exf_atemp_min                =   2.7444935384107E+02
(PID.TID 0000.0001) %MON exf_atemp_mean               =   2.9068966196870E+02
(PID.TID 0000.0001) %MON exf_atemp_sd                 =   3.9435706603967E+00
(PID.TID 0000.0001) %MON exf_atemp_del2               =   6.8447098796181E-03
(PID.TID 0000.0001) %MON exf_aqh_max                  =   1.6794530329835E-02
(PID.TID 0000.0001) %MON exf_aqh_min                  =   2.7308841414245E-03
(PID.TID 0000.0001) %MON exf_aqh_mean                 =   9.4240198902872E-03
(PID.TID 0000.0001) %MON exf_aqh_sd                   =   2.8724836765692E-03
(PID.TID 0000.0001) %MON exf_aqh_del2                 =   3.7513295547110E-06
(PID.TID 0000.0001) %MON exf_lwflux_max               =   1.5068737871060E+02
(PID.TID 0000.0001) %MON exf_lwflux_min               =   1.1240466338466E+01
(PID.TID 0000.0001) %MON exf_lwflux_mean              =   6.8144852946691E+01
(PID.TID 0000.0001) %MON exf_lwflux_sd                =   2.2436268217764E+01
(PID.TID 0000.0001) %MON exf_lwflux_del2              =   2.7554711563633E-02
(PID.TID 0000.0001) %MON exf_evap_max                 =   2.7339656323691E-07
(PID.TID 0000.0001) %MON exf_evap_min                 =  -9.2579549432842E-08
(PID.TID 0000.0001) %MON exf_evap_mean                =   5.9367342839342E-08
(PID.TID 0000.0001) %MON exf_evap_sd                  =   4.2139269758527E-08
(PID.TID 0000.0001) %MON exf_evap_del2                =   2.8590190877255E-11
(PID.TID 0000.0001) %MON exf_precip_max               =   1.4451136385994E-06
(PID.TID 0000.0001) %MON exf_precip_min               =   0.0000000000000E+00
(PID.TID 0000.0001) %MON exf_precip_mean              =   4.3469405978828E-08
(PID.TID 0000.0001) %MON exf_precip_sd                =   1.1052624745011E-07
(PID.TID 0000.0001) %MON exf_precip_del2              =   4.7937600306997E-11
(PID.TID 0000.0001) %MON exf_swflux_max               =   0.0000000000000E+00
(PID.TID 0000.0001) %MON exf_swflux_min               =   0.0000000000000E+00
(PID.TID 0000.0001) %MON exf_swflux_mean              =   0.0000000000000E+00
(PID.TID 0000.0001) %MON exf_swflux_sd                =   0.0000000000000E+00
(PID.TID 0000.0001) %MON exf_swflux_del2              =   0.0000000000000E+00
(PID.TID 0000.0001) %MON exf_swdown_max               =   0.0000000000000E+00
(PID.TID 0000.0001) %MON exf_swdown_min               =   0.0000000000000E+00
(PID.TID 0000.0001) %MON exf_swdown_mean              =   0.0000000000000E+00
(PID.TID 0000.0001) %MON exf_swdown_sd                =   0.0000000000000E+00
(PID.TID 0000.0001) %MON exf_swdown_del2              =   0.0000000000000E+00
(PID.TID 0000.0001) %MON exf_lwdown_max               =   4.0121792842509E+02
(PID.TID 0000.0001) %MON exf_lwdown_min               =   2.2846849151524E+02
(PID.TID 0000.0001) %MON exf_lwdown_mean              =   3.4683597144715E+02
(PID.TID 0000.0001) %MON exf_lwdown_sd                =   2.7582523170917E+01
(PID.TID 0000.0001) %MON exf_lwdown_del2              =   1.3418033850420E-01
(PID.TID 0000.0001) %MON exf_apressure_max            =   1.0279144996075E+05
(PID.TID 0000.0001) %MON exf_apressure_min            =   9.9993666812272E+04
(PID.TID 0000.0001) %MON exf_apressure_mean           =   1.0216218800660E+05
(PID.TID 0000.0001) %MON exf_apressure_sd             =   4.9961757351804E+02
(PID.TID 0000.0001) %MON exf_apressure_del2           =   3.9518486342875E+01
(PID.TID 0000.0001) %MON exf_runoff_max               =   4.4374791284855E-08
(PID.TID 0000.0001) %MON exf_runoff_min               =   0.0000000000000E+00
(PID.TID 0000.0001) %MON exf_runoff_mean              =   1.5884794052194E-09
(PID.TID 0000.0001) %MON exf_runoff_sd                =   5.3901957917178E-09
(PID.TID 0000.0001) %MON exf_runoff_del2              =   2.2191214937507E-12
(PID.TID 0000.0001) // =======================================================
(PID.TID 0000.0001) // End MONITOR EXF statistics
(PID.TID 0000.0001) // =======================================================
 cg2d: Sum(rhs),rhsMax =   4.19245071581798E+02  2.56258149199542E-01
(PID.TID 0000.0001)      cg2d_init_res =   1.77882421567509E+00
(PID.TID 0000.0001)      cg2d_iters(min,last) =      -1     316
(PID.TID 0000.0001)      cg2d_last_res =   6.49146908207976E-12
(PID.TID 0000.0001) // =======================================================
(PID.TID 0000.0001) // Begin MONITOR dynamic field statistics
(PID.TID 0000.0001) // =======================================================
(PID.TID 0000.0001) %MON time_tsnumber                =                     5
(PID.TID 0000.0001) %MON time_secondsf                =   1.2000000000000E+03
(PID.TID 0000.0001) %MON dynstat_eta_max              =   1.4019185448229E+00
(PID.TID 0000.0001) %MON dynstat_eta_min              =  -7.7040897191121E-01
(PID.TID 0000.0001) %MON dynstat_eta_mean             =  -1.4257309532766E-02
(PID.TID 0000.0001) %MON dynstat_eta_sd               =   1.5388263969211E-01
(PID.TID 0000.0001) %MON dynstat_eta_del2             =   2.4159115798775E-06
(PID.TID 0000.0001) %MON dynstat_uvel_max             =   1.2976176010462E+00
(PID.TID 0000.0001) %MON dynstat_uvel_min             =  -7.0540032421344E-01
(PID.TID 0000.0001) %MON dynstat_uvel_mean            =   3.1635558853573E-03
(PID.TID 0000.0001) %MON dynstat_uvel_sd              =   5.2372120957101E-02
(PID.TID 0000.0001) %MON dynstat_uvel_del2            =   4.6553904102842E-07
(PID.TID 0000.0001) %MON dynstat_vvel_max             =   1.8412309916272E+00
(PID.TID 0000.0001) %MON dynstat_vvel_min             =  -9.0650518307055E-01
(PID.TID 0000.0001) %MON dynstat_vvel_mean            =  -5.2844217867804E-03
(PID.TID 0000.0001) %MON dynstat_vvel_sd              =   4.8008447006069E-02
(PID.TID 0000.0001) %MON dynstat_vvel_del2            =   4.2901923894838E-07
(PID.TID 0000.0001) %MON dynstat_wvel_max             =   3.6941435653251E-02
(PID.TID 0000.0001) %MON dynstat_wvel_min             =  -3.1008408982767E-02
(PID.TID 0000.0001) %MON dynstat_wvel_mean            =  -7.1313314763788E-06
(PID.TID 0000.0001) %MON dynstat_wvel_sd              =   5.8522431674101E-04
(PID.TID 0000.0001) %MON dynstat_wvel_del2            =   8.0657646283081E-08
(PID.TID 0000.0001) %MON dynstat_theta_max            =   2.6140358391202E+01
(PID.TID 0000.0001) %MON dynstat_theta_min            =   1.4688643837231E+00
(PID.TID 0000.0001) %MON dynstat_theta_mean           =   5.5099005097715E+00
(PID.TID 0000.0001) %MON dynstat_theta_sd             =   4.7735311193494E+00
(PID.TID 0000.0001) %MON dynstat_theta_del2           =   3.9910472772347E-06
(PID.TID 0000.0001) %MON dynstat_salt_max             =   3.9176411682438E+01
(PID.TID 0000.0001) %MON dynstat_salt_min             =   3.3092681447853E+01
(PID.TID 0000.0001) %MON dynstat_salt_mean            =   3.5173375319170E+01
(PID.TID 0000.0001) %MON dynstat_salt_sd              =   3.7892660103190E-01
(PID.TID 0000.0001) %MON dynstat_salt_del2            =   5.0232125674228E-07
(PID.TID 0000.0001) %MON forcing_qnet_max             =   1.1612039046459E+03
(PID.TID 0000.0001) %MON forcing_qnet_min             =  -2.7340501319201E+02
(PID.TID 0000.0001) %MON forcing_qnet_mean            =   2.4435520223603E+02
(PID.TID 0000.0001) %MON forcing_qnet_sd              =   1.4413503188781E+02
(PID.TID 0000.0001) %MON forcing_qnet_del2            =   1.6761438256911E-03
(PID.TID 0000.0001) %MON forcing_qsw_max              =   0.0000000000000E+00
(PID.TID 0000.0001) %MON forcing_qsw_min              =   0.0000000000000E+00
(PID.TID 0000.0001) %MON forcing_qsw_mean             =   0.0000000000000E+00
(PID.TID 0000.0001) %MON forcing_qsw_sd               =   0.0000000000000E+00
(PID.TID 0000.0001) %MON forcing_qsw_del2             =   0.0000000000000E+00
(PID.TID 0000.0001) %MON forcing_empmr_max            =   2.5934626503663E-04
(PID.TID 0000.0001) %MON forcing_empmr_min            =  -1.2714458049730E-03
(PID.TID 0000.0001) %MON forcing_empmr_mean           =   1.4309457455295E-05
(PID.TID 0000.0001) %MON forcing_empmr_sd             =   1.0961566600576E-04
(PID.TID 0000.0001) %MON forcing_empmr_del2           =   2.7833790900370E-09
(PID.TID 0000.0001) %MON forcing_fu_max               =   8.3429154046431E-01
(PID.TID 0000.0001) %MON forcing_fu_min               =  -4.1938871379471E-01
(PID.TID 0000.0001) %MON forcing_fu_mean              =   6.3017445858579E-02
(PID.TID 0000.0001) %MON forcing_fu_sd                =   1.5551941396533E-01
(PID.TID 0000.0001) %MON forcing_fu_del2              =   3.5150198247605E-07
(PID.TID 0000.0001) %MON forcing_fv_max               =   3.9599761830684E-01
(PID.TID 0000.0001) %MON forcing_fv_min               =  -5.6792832487578E-01
(PID.TID 0000.0001) %MON forcing_fv_mean              =   1.0696701820809E-02
(PID.TID 0000.0001) %MON forcing_fv_sd                =   1.0201842086727E-01
(PID.TID 0000.0001) %MON forcing_fv_del2              =   2.5603719836606E-07
(PID.TID 0000.0001) %MON trAdv_CFL_u_max              =   7.8727449798401E-02
(PID.TID 0000.0001) %MON trAdv_CFL_v_max              =   1.1680762995308E-01
(PID.TID 0000.0001) %MON trAdv_CFL_w_max              =   4.5621933613377E-01
(PID.TID 0000.0001) %MON advcfl_uvel_max              =   7.8727448726456E-02
(PID.TID 0000.0001) %MON advcfl_vvel_max              =   1.1684197592449E-01
(PID.TID 0000.0001) %MON advcfl_wvel_max              =   4.5757310270983E-01
(PID.TID 0000.0001) %MON advcfl_W_hf_max              =   4.5893492742028E-01
(PID.TID 0000.0001) %MON pe_b_mean                    =  -3.2108636353038E-04
(PID.TID 0000.0001) %MON ke_max                       =   1.6972689283384E+00
(PID.TID 0000.0001) %MON ke_mean                      =   2.5239796086506E-03
(PID.TID 0000.0001) %MON ke_vol                       =   4.5818637279721E+16
(PID.TID 0000.0001) %MON vort_r_min                   =  -5.2870328561903E-04
(PID.TID 0000.0001) %MON vort_r_max                   =   4.8621019336204E-04
(PID.TID 0000.0001) %MON vort_a_mean                  =   8.2147611127006E-05
(PID.TID 0000.0001) %MON vort_a_sd                    =   1.0125792844960E-05
(PID.TID 0000.0001) %MON vort_p_mean                  =   8.4848832042813E-05
(PID.TID 0000.0001) %MON vort_p_sd                    =   3.4987590634316E-05
(PID.TID 0000.0001) %MON surfExpan_theta_mean         =  -1.2145510297586E-04
(PID.TID 0000.0001) %MON surfExpan_salt_mean          =  -3.4420816284852E-04
(PID.TID 0000.0001) // =======================================================
(PID.TID 0000.0001) // End MONITOR dynamic field statistics
(PID.TID 0000.0001) // =======================================================
(PID.TID 0000.0001) // =======================================================
(PID.TID 0000.0001) // Begin OBCS MONITOR field statistics
(PID.TID 0000.0001) // =======================================================
(PID.TID 0000.0001) %MON obc_N_vVel_max               =   6.7922174831758E-01
(PID.TID 0000.0001) %MON obc_N_vVel_min               =  -7.0516463070304E-01
(PID.TID 0000.0001) %MON obc_N_vVel_mean              =  -6.1661192387513E-03
(PID.TID 0000.0001) %MON obc_N_vVel_sd                =   6.2822320703487E-02
(PID.TID 0000.0001) %MON obc_N_vVel_Int               =  -8.8268517709627E+07
(PID.TID 0000.0001) %MON obc_S_vVel_max               =   1.5903110217801E+00
(PID.TID 0000.0001) %MON obc_S_vVel_min               =  -2.5405794056430E-01
(PID.TID 0000.0001) %MON obc_S_vVel_mean              =  -6.5493637278348E-03
(PID.TID 0000.0001) %MON obc_S_vVel_sd                =   3.7000529280412E-02
(PID.TID 0000.0001) %MON obc_S_vVel_Int               =  -1.9938162288795E+08
(PID.TID 0000.0001) %MON obc_N_theta_max              =   1.6390420534228E+01
(PID.TID 0000.0001) %MON obc_N_theta_min              =   1.8895909723125E+00
(PID.TID 0000.0001) %MON obc_N_theta_mean             =   5.1589435811386E+00
(PID.TID 0000.0001) %MON obc_N_theta_sd               =   3.4826874778161E+00
(PID.TID 0000.0001) %MON obc_S_theta_max              =   2.5544427564909E+01
(PID.TID 0000.0001) %MON obc_S_theta_min              =   1.4632976223230E+00
(PID.TID 0000.0001) %MON obc_S_theta_mean             =   5.4595537550886E+00
(PID.TID 0000.0001) %MON obc_S_theta_sd               =   5.3559176792685E+00
(PID.TID 0000.0001) %MON obc_N_salt_max               =   3.5910865606142E+01
(PID.TID 0000.0001) %MON obc_N_salt_min               =   3.3295041583212E+01
(PID.TID 0000.0001) %MON obc_N_salt_mean              =   3.5114562836417E+01
(PID.TID 0000.0001) %MON obc_N_salt_sd                =   3.0984873245969E-01
(PID.TID 0000.0001) %MON obc_S_salt_max               =   3.7318312208701E+01
(PID.TID 0000.0001) %MON obc_S_salt_min               =   3.4844694574919E+01
(PID.TID 0000.0001) %MON obc_S_salt_mean              =   3.5168372579251E+01
(PID.TID 0000.0001) %MON obc_S_salt_sd                =   4.5716935240398E-01
(PID.TID 0000.0001) // =======================================================
(PID.TID 0000.0001) // End OBCS MONITOR field statistics
(PID.TID 0000.0001) // =======================================================
(PID.TID 0000.0001) // =======================================================
(PID.TID 0000.0001) // Begin MONITOR EXF statistics
(PID.TID 0000.0001) // =======================================================
(PID.TID 0000.0001) %MON exf_tsnumber                 =                     5
(PID.TID 0000.0001) %MON exf_time_sec                 =   1.2000000000000E+03
(PID.TID 0000.0001) %MON exf_ustress_max              =   8.3544158388927E-01
(PID.TID 0000.0001) %MON exf_ustress_min              =  -4.1642640874371E-01
(PID.TID 0000.0001) %MON exf_ustress_mean             =   6.2981308311905E-02
(PID.TID 0000.0001) %MON exf_ustress_sd               =   1.5518380112086E-01
(PID.TID 0000.0001) %MON exf_ustress_del2             =   3.8513163479420E-07
(PID.TID 0000.0001) %MON exf_vstress_max              =   3.9310064950095E-01
(PID.TID 0000.0001) %MON exf_vstress_min              =  -5.6338575869407E-01
(PID.TID 0000.0001) %MON exf_vstress_mean             =   1.0741595954310E-02
(PID.TID 0000.0001) %MON exf_vstress_sd               =   1.0165104317689E-01
(PID.TID 0000.0001) %MON exf_vstress_del2             =   2.6813002569925E-07
(PID.TID 0000.0001) %MON exf_hflux_max                =   1.1473712027745E+03
(PID.TID 0000.0001) %MON exf_hflux_min                =  -2.7296555055101E+02
(PID.TID 0000.0001) %MON exf_hflux_mean               =   2.4162464128209E+02
(PID.TID 0000.0001) %MON exf_hflux_sd                 =   1.4122924359233E+02
(PID.TID 0000.0001) %MON exf_hflux_del2               =   1.0983477946772E-01
(PID.TID 0000.0001) %MON exf_sflux_max                =   2.5850111549321E-07
(PID.TID 0000.0001) %MON exf_sflux_min                =  -1.3964488524096E-06
(PID.TID 0000.0001) %MON exf_sflux_mean               =   1.5194544282086E-08
(PID.TID 0000.0001) %MON exf_sflux_sd                 =   1.1564616920518E-07
(PID.TID 0000.0001) %MON exf_sflux_del2               =   4.6471675271150E-11
(PID.TID 0000.0001) %MON exf_uwind_max                =   1.9575511030585E+01
(PID.TID 0000.0001) %MON exf_uwind_min                =  -1.4999319774346E+01
(PID.TID 0000.0001) %MON exf_uwind_mean               =   2.4722186596507E+00
(PID.TID 0000.0001) %MON exf_uwind_sd                 =   6.6728507638640E+00
(PID.TID 0000.0001) %MON exf_uwind_del2               =   2.8400300535111E-03
(PID.TID 0000.0001) %MON exf_vwind_max                =   1.4393595200626E+01
(PID.TID 0000.0001) %MON exf_vwind_min                =  -1.2771731884961E+01
(PID.TID 0000.0001) %MON exf_vwind_mean               =   8.5669169140488E-01
(PID.TID 0000.0001) %MON exf_vwind_sd                 =   5.1896437368327E+00
(PID.TID 0000.0001) %MON exf_vwind_del2               =   2.0905274258983E-03
(PID.TID 0000.0001) %MON exf_wspeed_max               =   2.0392377419247E+01
(PID.TID 0000.0001) %MON exf_wspeed_min               =   7.9698971855536E-03
(PID.TID 0000.0001) %MON exf_wspeed_mean              =   7.7229285623337E+00
(PID.TID 0000.0001) %MON exf_wspeed_sd                =   4.3198957867506E+00
(PID.TID 0000.0001) %MON exf_wspeed_del2              =   3.5261853303341E-03
(PID.TID 0000.0001) %MON exf_atemp_max                =   2.9816683772317E+02
(PID.TID 0000.0001) %MON exf_atemp_min                =   2.7442375263243E+02
(PID.TID 0000.0001) %MON exf_atemp_mean               =   2.9068654076250E+02
(PID.TID 0000.0001) %MON exf_atemp_sd                 =   3.9434619743398E+00
(PID.TID 0000.0001) %MON exf_atemp_del2               =   6.8434714431344E-03
(PID.TID 0000.0001) %MON exf_aqh_max                  =   1.6787544028961E-02
(PID.TID 0000.0001) %MON exf_aqh_min                  =   2.7285894436605E-03
(PID.TID 0000.0001) %MON exf_aqh_mean                 =   9.4228317374731E-03
(PID.TID 0000.0001) %MON exf_aqh_sd                   =   2.8724955205138E-03
(PID.TID 0000.0001) %MON exf_aqh_del2                 =   3.7507960278560E-06
(PID.TID 0000.0001) %MON exf_lwflux_max               =   1.5058637905984E+02
(PID.TID 0000.0001) %MON exf_lwflux_min               =   7.2576628782187E+00
(PID.TID 0000.0001) %MON exf_lwflux_mean              =   6.7368392461897E+01
(PID.TID 0000.0001) %MON exf_lwflux_sd                =   2.3459924308394E+01
(PID.TID 0000.0001) %MON exf_lwflux_del2              =   2.7394390226951E-02
(PID.TID 0000.0001) %MON exf_evap_max                 =   2.7488519423578E-07
(PID.TID 0000.0001) %MON exf_evap_min                 =  -9.3282110765978E-08
(PID.TID 0000.0001) %MON exf_evap_mean                =   5.9328563837285E-08
(PID.TID 0000.0001) %MON exf_evap_sd                  =   4.2091583807741E-08
(PID.TID 0000.0001) %MON exf_evap_del2                =   2.8571439597698E-11
(PID.TID 0000.0001) %MON exf_precip_max               =   1.5707756941297E-06
(PID.TID 0000.0001) %MON exf_precip_min               =   0.0000000000000E+00
(PID.TID 0000.0001) %MON exf_precip_mean              =   4.2545540149979E-08
(PID.TID 0000.0001) %MON exf_precip_sd                =   1.1790919939009E-07
(PID.TID 0000.0001) %MON exf_precip_del2              =   5.0678369502666E-11
(PID.TID 0000.0001) %MON exf_swflux_max               =   0.0000000000000E+00
(PID.TID 0000.0001) %MON exf_swflux_min               =   0.0000000000000E+00
(PID.TID 0000.0001) %MON exf_swflux_mean              =   0.0000000000000E+00
(PID.TID 0000.0001) %MON exf_swflux_sd                =   0.0000000000000E+00
(PID.TID 0000.0001) %MON exf_swflux_del2              =   0.0000000000000E+00
(PID.TID 0000.0001) %MON exf_swdown_max               =   0.0000000000000E+00
(PID.TID 0000.0001) %MON exf_swdown_min               =   0.0000000000000E+00
(PID.TID 0000.0001) %MON exf_swdown_mean              =   0.0000000000000E+00
(PID.TID 0000.0001) %MON exf_swdown_sd                =   0.0000000000000E+00
(PID.TID 0000.0001) %MON exf_swdown_del2              =   0.0000000000000E+00
(PID.TID 0000.0001) %MON exf_lwdown_max               =   4.0522098466867E+02
(PID.TID 0000.0001) %MON exf_lwdown_min               =   2.2767370597179E+02
(PID.TID 0000.0001) %MON exf_lwdown_mean              =   3.4763002542741E+02
(PID.TID 0000.0001) %MON exf_lwdown_sd                =   2.8649240414861E+01
(PID.TID 0000.0001) %MON exf_lwdown_del2              =   1.3452484309508E-01
(PID.TID 0000.0001) %MON exf_apressure_max            =   1.0279296099314E+05
(PID.TID 0000.0001) %MON exf_apressure_min            =   9.9998241534199E+04
(PID.TID 0000.0001) %MON exf_apressure_mean           =   1.0216296531315E+05
(PID.TID 0000.0001) %MON exf_apressure_sd             =   4.9937521608735E+02
(PID.TID 0000.0001) %MON exf_apressure_del2           =   3.9518793508396E+01
(PID.TID 0000.0001) %MON exf_runoff_max               =   4.4374791284855E-08
(PID.TID 0000.0001) %MON exf_runoff_min               =   0.0000000000000E+00
(PID.TID 0000.0001) %MON exf_runoff_mean              =   1.5884794052194E-09
(PID.TID 0000.0001) %MON exf_runoff_sd                =   5.3901957917178E-09
(PID.TID 0000.0001) %MON exf_runoff_del2              =   2.2191214937507E-12
(PID.TID 0000.0001) // =======================================================
(PID.TID 0000.0001) // End MONITOR EXF statistics
(PID.TID 0000.0001) // =======================================================
 cg2d: Sum(rhs),rhsMax =   4.81205213253891E+02  2.57552445958402E-01
(PID.TID 0000.0001)      cg2d_init_res =   1.55297077206400E+00
(PID.TID 0000.0001)      cg2d_iters(min,last) =      -1     315
(PID.TID 0000.0001)      cg2d_last_res =   6.49515534292656E-12
(PID.TID 0000.0001) // =======================================================
(PID.TID 0000.0001) // Begin MONITOR dynamic field statistics
(PID.TID 0000.0001) // =======================================================
(PID.TID 0000.0001) %MON time_tsnumber                =                     6
(PID.TID 0000.0001) %MON time_secondsf                =   1.4400000000000E+03
(PID.TID 0000.0001) %MON dynstat_eta_max              =   1.4211199667551E+00
(PID.TID 0000.0001) %MON dynstat_eta_min              =  -8.0250252006230E-01
(PID.TID 0000.0001) %MON dynstat_eta_mean             =  -1.6364394334456E-02
(PID.TID 0000.0001) %MON dynstat_eta_sd               =   1.6885520656936E-01
(PID.TID 0000.0001) %MON dynstat_eta_del2             =   2.3062102575643E-06
(PID.TID 0000.0001) %MON dynstat_uvel_max             =   1.2994144766698E+00
(PID.TID 0000.0001) %MON dynstat_uvel_min             =  -7.0561482554105E-01
(PID.TID 0000.0001) %MON dynstat_uvel_mean            =   2.8885397931739E-03
(PID.TID 0000.0001) %MON dynstat_uvel_sd              =   5.2352921815740E-02
(PID.TID 0000.0001) %MON dynstat_uvel_del2            =   4.7070492901908E-07
(PID.TID 0000.0001) %MON dynstat_vvel_max             =   1.8529954634990E+00
(PID.TID 0000.0001) %MON dynstat_vvel_min             =  -9.0982675161078E-01
(PID.TID 0000.0001) %MON dynstat_vvel_mean            =  -6.1156081302428E-03
(PID.TID 0000.0001) %MON dynstat_vvel_sd              =   4.8043046492344E-02
(PID.TID 0000.0001) %MON dynstat_vvel_del2            =   4.3487990830563E-07
(PID.TID 0000.0001) %MON dynstat_wvel_max             =   3.6521371013262E-02
(PID.TID 0000.0001) %MON dynstat_wvel_min             =  -3.0053006955081E-02
(PID.TID 0000.0001) %MON dynstat_wvel_mean            =  -6.4972915637571E-06
(PID.TID 0000.0001) %MON dynstat_wvel_sd              =   5.8477347275239E-04
(PID.TID 0000.0001) %MON dynstat_wvel_del2            =   7.6629966056518E-08
(PID.TID 0000.0001) %MON dynstat_theta_max            =   2.6140049988029E+01
(PID.TID 0000.0001) %MON dynstat_theta_min            =   1.4688645031237E+00
(PID.TID 0000.0001) %MON dynstat_theta_mean           =   5.5098989846371E+00
(PID.TID 0000.0001) %MON dynstat_theta_sd             =   4.7735180144148E+00
(PID.TID 0000.0001) %MON dynstat_theta_del2           =   3.9935082925456E-06
(PID.TID 0000.0001) %MON dynstat_salt_max             =   3.9173654110154E+01
(PID.TID 0000.0001) %MON dynstat_salt_min             =   3.3093447721684E+01
(PID.TID 0000.0001) %MON dynstat_salt_mean            =   3.5173374951453E+01
(PID.TID 0000.0001) %MON dynstat_salt_sd              =   3.7892698277723E-01
(PID.TID 0000.0001) %MON dynstat_salt_del2            =   5.0599587002344E-07
(PID.TID 0000.0001) %MON forcing_qnet_max             =   1.1647030201228E+03
(PID.TID 0000.0001) %MON forcing_qnet_min             =  -2.7794378482017E+02
(PID.TID 0000.0001) %MON forcing_qnet_mean            =   2.4356067852847E+02
(PID.TID 0000.0001) %MON forcing_qnet_sd              =   1.4339184007260E+02
(PID.TID 0000.0001) %MON forcing_qnet_del2            =   1.6794568448817E-03
(PID.TID 0000.0001) %MON forcing_qsw_max              =   0.0000000000000E+00
(PID.TID 0000.0001) %MON forcing_qsw_min              =   0.0000000000000E+00
(PID.TID 0000.0001) %MON forcing_qsw_mean             =   0.0000000000000E+00
(PID.TID 0000.0001) %MON forcing_qsw_sd               =   0.0000000000000E+00
(PID.TID 0000.0001) %MON forcing_qsw_del2             =   0.0000000000000E+00
(PID.TID 0000.0001) %MON forcing_empmr_max            =   2.5850111549321E-04
(PID.TID 0000.0001) %MON forcing_empmr_min            =  -1.3964488524096E-03
(PID.TID 0000.0001) %MON forcing_empmr_mean           =   1.5194544282086E-05
(PID.TID 0000.0001) %MON forcing_empmr_sd             =   1.1564616920518E-04
(PID.TID 0000.0001) %MON forcing_empmr_del2           =   2.9487216245461E-09
(PID.TID 0000.0001) %MON forcing_fu_max               =   8.3420278172754E-01
(PID.TID 0000.0001) %MON forcing_fu_min               =  -4.1642284384336E-01
(PID.TID 0000.0001) %MON forcing_fu_mean              =   6.3039232530282E-02
(PID.TID 0000.0001) %MON forcing_fu_sd                =   1.5524321831137E-01
(PID.TID 0000.0001) %MON forcing_fu_del2              =   3.4346405544003E-07
(PID.TID 0000.0001) %MON forcing_fv_max               =   3.9262789966517E-01
(PID.TID 0000.0001) %MON forcing_fv_min               =  -5.6666794794111E-01
(PID.TID 0000.0001) %MON forcing_fv_mean              =   1.0722836636281E-02
(PID.TID 0000.0001) %MON forcing_fv_sd                =   1.0178143988484E-01
(PID.TID 0000.0001) %MON forcing_fv_del2              =   2.4794360172613E-07
(PID.TID 0000.0001) %MON trAdv_CFL_u_max              =   7.8836467613304E-02
(PID.TID 0000.0001) %MON trAdv_CFL_v_max              =   1.1757061830060E-01
(PID.TID 0000.0001) %MON trAdv_CFL_w_max              =   4.8646195919464E-01
(PID.TID 0000.0001) %MON advcfl_uvel_max              =   7.8836466539874E-02
(PID.TID 0000.0001) %MON advcfl_vvel_max              =   1.1760518862016E-01
(PID.TID 0000.0001) %MON advcfl_wvel_max              =   4.8269093625514E-01
(PID.TID 0000.0001) %MON advcfl_W_hf_max              =   4.8646195919464E-01
(PID.TID 0000.0001) %MON pe_b_mean                    =  -3.6675338547440E-04
(PID.TID 0000.0001) %MON ke_max                       =   1.7189675813415E+00
(PID.TID 0000.0001) %MON ke_mean                      =   2.5285222118925E-03
(PID.TID 0000.0001) %MON ke_vol                       =   4.5818637279721E+16
(PID.TID 0000.0001) %MON vort_r_min                   =  -5.4191421022046E-04
(PID.TID 0000.0001) %MON vort_r_max                   =   4.9929722099095E-04
(PID.TID 0000.0001) %MON vort_a_mean                  =   8.2147611301532E-05
(PID.TID 0000.0001) %MON vort_a_sd                    =   1.0128251731346E-05
(PID.TID 0000.0001) %MON vort_p_mean                  =   8.4848832223078E-05
(PID.TID 0000.0001) %MON vort_p_sd                    =   3.4989662437787E-05
(PID.TID 0000.0001) %MON surfExpan_theta_mean         =  -8.8261575563105E-05
(PID.TID 0000.0001) %MON surfExpan_salt_mean          =  -3.0503798605710E-04
(PID.TID 0000.0001) // =======================================================
(PID.TID 0000.0001) // End MONITOR dynamic field statistics
(PID.TID 0000.0001) // =======================================================
(PID.TID 0000.0001) // =======================================================
(PID.TID 0000.0001) // Begin OBCS MONITOR field statistics
(PID.TID 0000.0001) // =======================================================
(PID.TID 0000.0001) %MON obc_N_vVel_max               =   6.7909210552044E-01
(PID.TID 0000.0001) %MON obc_N_vVel_min               =  -7.0666604085151E-01
(PID.TID 0000.0001) %MON obc_N_vVel_mean              =  -6.2868016937298E-03
(PID.TID 0000.0001) %MON obc_N_vVel_sd                =   6.2835093033650E-02
(PID.TID 0000.0001) %MON obc_N_vVel_Int               =  -8.9996097245807E+07
(PID.TID 0000.0001) %MON obc_S_vVel_max               =   1.5912454380586E+00
(PID.TID 0000.0001) %MON obc_S_vVel_min               =  -2.5396420455157E-01
(PID.TID 0000.0001) %MON obc_S_vVel_mean              =  -6.2154896969655E-03
(PID.TID 0000.0001) %MON obc_S_vVel_sd                =   3.7001919986277E-02
(PID.TID 0000.0001) %MON obc_S_vVel_Int               =  -1.8921752926280E+08
(PID.TID 0000.0001) %MON obc_N_theta_max              =   1.6390332432041E+01
(PID.TID 0000.0001) %MON obc_N_theta_min              =   1.8895910213779E+00
(PID.TID 0000.0001) %MON obc_N_theta_mean             =   5.1589361969886E+00
(PID.TID 0000.0001) %MON obc_N_theta_sd               =   3.4826781859977E+00
(PID.TID 0000.0001) %MON obc_S_theta_max              =   2.5544324816130E+01
(PID.TID 0000.0001) %MON obc_S_theta_min              =   1.4632980186102E+00
(PID.TID 0000.0001) %MON obc_S_theta_mean             =   5.4595529500640E+00
(PID.TID 0000.0001) %MON obc_S_theta_sd               =   5.3559138080854E+00
(PID.TID 0000.0001) %MON obc_N_salt_max               =   3.5910865197779E+01
(PID.TID 0000.0001) %MON obc_N_salt_min               =   3.3295047085845E+01
(PID.TID 0000.0001) %MON obc_N_salt_mean              =   3.5114562540430E+01
(PID.TID 0000.0001) %MON obc_N_salt_sd                =   3.0984861316313E-01
(PID.TID 0000.0001) %MON obc_S_salt_max               =   3.7318305324317E+01
(PID.TID 0000.0001) %MON obc_S_salt_min               =   3.4844694627139E+01
(PID.TID 0000.0001) %MON obc_S_salt_mean              =   3.5168372507335E+01
(PID.TID 0000.0001) %MON obc_S_salt_sd                =   4.5716900132847E-01
(PID.TID 0000.0001) // =======================================================
(PID.TID 0000.0001) // End OBCS MONITOR field statistics
(PID.TID 0000.0001) // =======================================================
(PID.TID 0000.0001) // =======================================================
(PID.TID 0000.0001) // Begin MONITOR EXF statistics
(PID.TID 0000.0001) // =======================================================
(PID.TID 0000.0001) %MON exf_tsnumber                 =                     6
(PID.TID 0000.0001) %MON exf_time_sec                 =   1.4400000000000E+03
(PID.TID 0000.0001) %MON exf_ustress_max              =   8.3368087232621E-01
(PID.TID 0000.0001) %MON exf_ustress_min              =  -4.1357758737140E-01
(PID.TID 0000.0001) %MON exf_ustress_mean             =   6.3031179812409E-02
(PID.TID 0000.0001) %MON exf_ustress_sd               =   1.5499524140923E-01
(PID.TID 0000.0001) %MON exf_ustress_del2             =   3.8045016427003E-07
(PID.TID 0000.0001) %MON exf_vstress_max              =   3.9128323649549E-01
(PID.TID 0000.0001) %MON exf_vstress_min              =  -5.6239223541904E-01
(PID.TID 0000.0001) %MON exf_vstress_mean             =   1.0779239967747E-02
(PID.TID 0000.0001) %MON exf_vstress_sd               =   1.0149745695590E-01
(PID.TID 0000.0001) %MON exf_vstress_del2             =   2.6404071310489E-07
(PID.TID 0000.0001) %MON exf_hflux_max                =   1.1510055205046E+03
(PID.TID 0000.0001) %MON exf_hflux_min                =  -2.7764521117023E+02
(PID.TID 0000.0001) %MON exf_hflux_mean               =   2.4077924672306E+02
(PID.TID 0000.0001) %MON exf_hflux_sd                 =   1.4075304584768E+02
(PID.TID 0000.0001) %MON exf_hflux_del2               =   1.0945721259560E-01
(PID.TID 0000.0001) %MON exf_sflux_max                =   2.5770047458598E-07
(PID.TID 0000.0001) %MON exf_sflux_min                =  -1.5214567129915E-06
(PID.TID 0000.0001) %MON exf_sflux_mean               =   1.6088889012991E-08
(PID.TID 0000.0001) %MON exf_sflux_sd                 =   1.2268243434864E-07
(PID.TID 0000.0001) %MON exf_sflux_del2               =   4.9405141004250E-11
(PID.TID 0000.0001) %MON exf_uwind_max                =   1.9569066259466E+01
(PID.TID 0000.0001) %MON exf_uwind_min                =  -1.4966074713741E+01
(PID.TID 0000.0001) %MON exf_uwind_mean               =   2.4740258536132E+00
(PID.TID 0000.0001) %MON exf_uwind_sd                 =   6.6700511712397E+00
(PID.TID 0000.0001) %MON exf_uwind_del2               =   2.8392208891194E-03
(PID.TID 0000.0001) %MON exf_vwind_max                =   1.4372599245937E+01
(PID.TID 0000.0001) %MON exf_vwind_min                =  -1.2765909813265E+01
(PID.TID 0000.0001) %MON exf_vwind_mean               =   8.5901395745169E-01
(PID.TID 0000.0001) %MON exf_vwind_sd                 =   5.1839992730299E+00
(PID.TID 0000.0001) %MON exf_vwind_del2               =   2.0887469868587E-03
(PID.TID 0000.0001) %MON exf_wspeed_max               =   2.0353177100332E+01
(PID.TID 0000.0001) %MON exf_wspeed_min               =   1.2915530116380E-02
(PID.TID 0000.0001) %MON exf_wspeed_mean              =   7.7181962596220E+00
(PID.TID 0000.0001) %MON exf_wspeed_sd                =   4.3187482551234E+00
(PID.TID 0000.0001) %MON exf_wspeed_del2              =   3.5244868298244E-03
(PID.TID 0000.0001) %MON exf_atemp_max                =   2.9816464043476E+02
(PID.TID 0000.0001) %MON exf_atemp_min                =   2.7439815142379E+02
(PID.TID 0000.0001) %MON exf_atemp_mean               =   2.9068341955631E+02
(PID.TID 0000.0001) %MON exf_atemp_sd                 =   3.9434957823437E+00
(PID.TID 0000.0001) %MON exf_atemp_del2               =   6.8422467283737E-03
(PID.TID 0000.0001) %MON exf_aqh_max                  =   1.6780557728087E-02
(PID.TID 0000.0001) %MON exf_aqh_min                  =   2.7262947458965E-03
(PID.TID 0000.0001) %MON exf_aqh_mean                 =   9.4216435846591E-03
(PID.TID 0000.0001) %MON exf_aqh_sd                   =   2.8726801694255E-03
(PID.TID 0000.0001) %MON exf_aqh_del2                 =   3.7502842763471E-06
(PID.TID 0000.0001) %MON exf_lwflux_max               =   1.5056904713046E+02
(PID.TID 0000.0001) %MON exf_lwflux_min               =   3.2741229633641E+00
(PID.TID 0000.0001) %MON exf_lwflux_mean              =   6.6592554837977E+01
(PID.TID 0000.0001) %MON exf_lwflux_sd                =   2.4690492178791E+01
(PID.TID 0000.0001) %MON exf_lwflux_del2              =   2.7271328611329E-02
(PID.TID 0000.0001) %MON exf_evap_max                 =   2.7642489430921E-07
(PID.TID 0000.0001) %MON exf_evap_min                 =  -9.4001752942790E-08
(PID.TID 0000.0001) %MON exf_evap_mean                =   5.9299042739341E-08
(PID.TID 0000.0001) %MON exf_evap_sd                  =   4.2057418914425E-08
(PID.TID 0000.0001) %MON exf_evap_del2                =   2.8558915771951E-11
(PID.TID 0000.0001) %MON exf_precip_max               =   1.6964377496601E-06
(PID.TID 0000.0001) %MON exf_precip_min               =   0.0000000000000E+00
(PID.TID 0000.0001) %MON exf_precip_mean              =   4.1621674321131E-08
(PID.TID 0000.0001) %MON exf_precip_sd                =   1.2611994878121E-07
(PID.TID 0000.0001) %MON exf_precip_del2              =   5.3753981502031E-11
(PID.TID 0000.0001) %MON exf_swflux_max               =   0.0000000000000E+00
(PID.TID 0000.0001) %MON exf_swflux_min               =   0.0000000000000E+00
(PID.TID 0000.0001) %MON exf_swflux_mean              =   0.0000000000000E+00
(PID.TID 0000.0001) %MON exf_swflux_sd                =   0.0000000000000E+00
(PID.TID 0000.0001) %MON exf_swflux_del2              =   0.0000000000000E+00
(PID.TID 0000.0001) %MON exf_swdown_max               =   0.0000000000000E+00
(PID.TID 0000.0001) %MON exf_swdown_min               =   0.0000000000000E+00
(PID.TID 0000.0001) %MON exf_swdown_mean              =   0.0000000000000E+00
(PID.TID 0000.0001) %MON exf_swdown_sd                =   0.0000000000000E+00
(PID.TID 0000.0001) %MON exf_swdown_del2              =   0.0000000000000E+00
(PID.TID 0000.0001) %MON exf_lwdown_max               =   4.0922404091225E+02
(PID.TID 0000.0001) %MON exf_lwdown_min               =   2.2687892042835E+02
(PID.TID 0000.0001) %MON exf_lwdown_mean              =   3.4842407940767E+02
(PID.TID 0000.0001) %MON exf_lwdown_sd                =   2.9896536470828E+01
(PID.TID 0000.0001) %MON exf_lwdown_del2              =   1.3487661249190E-01
(PID.TID 0000.0001) %MON exf_apressure_max            =   1.0279447202553E+05
(PID.TID 0000.0001) %MON exf_apressure_min            =   1.0000228416919E+05
(PID.TID 0000.0001) %MON exf_apressure_mean           =   1.0216374261970E+05
(PID.TID 0000.0001) %MON exf_apressure_sd             =   4.9917253457380E+02
(PID.TID 0000.0001) %MON exf_apressure_del2           =   3.9519100755332E+01
(PID.TID 0000.0001) %MON exf_runoff_max               =   4.4374791284855E-08
(PID.TID 0000.0001) %MON exf_runoff_min               =   0.0000000000000E+00
(PID.TID 0000.0001) %MON exf_runoff_mean              =   1.5884794052194E-09
(PID.TID 0000.0001) %MON exf_runoff_sd                =   5.3901957917178E-09
(PID.TID 0000.0001) %MON exf_runoff_del2              =   2.2191214937507E-12
(PID.TID 0000.0001) // =======================================================
(PID.TID 0000.0001) // End MONITOR EXF statistics
(PID.TID 0000.0001) // =======================================================
 cg2d: Sum(rhs),rhsMax =   5.35657177102141E+02  2.33072279048733E-01
(PID.TID 0000.0001)      cg2d_init_res =   1.40862528065145E+00
(PID.TID 0000.0001)      cg2d_iters(min,last) =      -1     314
(PID.TID 0000.0001)      cg2d_last_res =   6.70724018480093E-12
(PID.TID 0000.0001) // =======================================================
(PID.TID 0000.0001) // Begin MONITOR dynamic field statistics
(PID.TID 0000.0001) // =======================================================
(PID.TID 0000.0001) %MON time_tsnumber                =                     7
(PID.TID 0000.0001) %MON time_secondsf                =   1.6800000000000E+03
(PID.TID 0000.0001) %MON dynstat_eta_max              =   1.4032536659734E+00
(PID.TID 0000.0001) %MON dynstat_eta_min              =  -8.5156363839060E-01
(PID.TID 0000.0001) %MON dynstat_eta_mean             =  -1.8216147773852E-02
(PID.TID 0000.0001) %MON dynstat_eta_sd               =   1.8176325027618E-01
(PID.TID 0000.0001) %MON dynstat_eta_del2             =   2.3506572745302E-06
(PID.TID 0000.0001) %MON dynstat_uvel_max             =   1.2998998498518E+00
(PID.TID 0000.0001) %MON dynstat_uvel_min             =  -7.0525474698870E-01
(PID.TID 0000.0001) %MON dynstat_uvel_mean            =   2.5804303337838E-03
(PID.TID 0000.0001) %MON dynstat_uvel_sd              =   5.2313752133802E-02
(PID.TID 0000.0001) %MON dynstat_uvel_del2            =   4.7826835029072E-07
(PID.TID 0000.0001) %MON dynstat_vvel_max             =   1.8623066658170E+00
(PID.TID 0000.0001) %MON dynstat_vvel_min             =  -9.1279435395512E-01
(PID.TID 0000.0001) %MON dynstat_vvel_mean            =  -6.8927197608430E-03
(PID.TID 0000.0001) %MON dynstat_vvel_sd              =   4.8093269214577E-02
(PID.TID 0000.0001) %MON dynstat_vvel_del2            =   4.4287747391013E-07
(PID.TID 0000.0001) %MON dynstat_wvel_max             =   3.6070514945521E-02
(PID.TID 0000.0001) %MON dynstat_wvel_min             =  -2.9015540222924E-02
(PID.TID 0000.0001) %MON dynstat_wvel_mean            =  -5.8548014518659E-06
(PID.TID 0000.0001) %MON dynstat_wvel_sd              =   5.8635237806900E-04
(PID.TID 0000.0001) %MON dynstat_wvel_del2            =   7.4692504919941E-08
(PID.TID 0000.0001) %MON dynstat_theta_max            =   2.6139749012646E+01
(PID.TID 0000.0001) %MON dynstat_theta_min            =   1.4688646090486E+00
(PID.TID 0000.0001) %MON dynstat_theta_mean           =   5.5098959325384E+00
(PID.TID 0000.0001) %MON dynstat_theta_sd             =   4.7735014776129E+00
(PID.TID 0000.0001) %MON dynstat_theta_del2           =   3.9958963035200E-06
(PID.TID 0000.0001) %MON dynstat_salt_max             =   3.9170611497247E+01
(PID.TID 0000.0001) %MON dynstat_salt_min             =   3.3094263981268E+01
(PID.TID 0000.0001) %MON dynstat_salt_mean            =   3.5173374487602E+01
(PID.TID 0000.0001) %MON dynstat_salt_sd              =   3.7892706814440E-01
(PID.TID 0000.0001) %MON dynstat_salt_del2            =   5.0983541920866E-07
(PID.TID 0000.0001) %MON forcing_qnet_max             =   1.1684384468710E+03
(PID.TID 0000.0001) %MON forcing_qnet_min             =  -2.8254452375682E+02
(PID.TID 0000.0001) %MON forcing_qnet_mean            =   2.4279649186471E+02
(PID.TID 0000.0001) %MON forcing_qnet_sd              =   1.4274304978734E+02
(PID.TID 0000.0001) %MON forcing_qnet_del2            =   1.6773060448891E-03
(PID.TID 0000.0001) %MON forcing_qsw_max              =   0.0000000000000E+00
(PID.TID 0000.0001) %MON forcing_qsw_min              =   0.0000000000000E+00
(PID.TID 0000.0001) %MON forcing_qsw_mean             =   0.0000000000000E+00
(PID.TID 0000.0001) %MON forcing_qsw_sd               =   0.0000000000000E+00
(PID.TID 0000.0001) %MON forcing_qsw_del2             =   0.0000000000000E+00
(PID.TID 0000.0001) %MON forcing_empmr_max            =   2.5770047458598E-04
(PID.TID 0000.0001) %MON forcing_empmr_min            =  -1.5214567129915E-03
(PID.TID 0000.0001) %MON forcing_empmr_mean           =   1.6088889012991E-05
(PID.TID 0000.0001) %MON forcing_empmr_sd             =   1.2268243434864E-04
(PID.TID 0000.0001) %MON forcing_empmr_del2           =   3.1387921551742E-09
(PID.TID 0000.0001) %MON forcing_fu_max               =   8.3264529628599E-01
(PID.TID 0000.0001) %MON forcing_fu_min               =  -4.1352023472517E-01
(PID.TID 0000.0001) %MON forcing_fu_mean              =   6.3089534847235E-02
(PID.TID 0000.0001) %MON forcing_fu_sd                =   1.5505485596699E-01
(PID.TID 0000.0001) %MON forcing_fu_del2              =   3.3897599728931E-07
(PID.TID 0000.0001) %MON forcing_fv_max               =   3.9081005521027E-01
(PID.TID 0000.0001) %MON forcing_fv_min               =  -5.6588351997073E-01
(PID.TID 0000.0001) %MON forcing_fv_mean              =   1.0760721960766E-02
(PID.TID 0000.0001) %MON forcing_fv_sd                =   1.0162824260171E-01
(PID.TID 0000.0001) %MON forcing_fv_del2              =   2.4387367360938E-07
(PID.TID 0000.0001) %MON trAdv_CFL_u_max              =   7.8865915574544E-02
(PID.TID 0000.0001) %MON trAdv_CFL_v_max              =   1.1816140431989E-01
(PID.TID 0000.0001) %MON trAdv_CFL_w_max              =   5.2165844404589E-01
(PID.TID 0000.0001) %MON advcfl_uvel_max              =   7.8865914500714E-02
(PID.TID 0000.0001) %MON advcfl_vvel_max              =   1.1819614835344E-01
(PID.TID 0000.0001) %MON advcfl_wvel_max              =   5.1761458013855E-01
(PID.TID 0000.0001) %MON advcfl_W_hf_max              =   5.2165844404589E-01
(PID.TID 0000.0001) %MON pe_b_mean                    =  -4.0647786441955E-04
(PID.TID 0000.0001) %MON ke_max                       =   1.7357786082262E+00
(PID.TID 0000.0001) %MON ke_mean                      =   2.5330813213058E-03
(PID.TID 0000.0001) %MON ke_vol                       =   4.5818637279721E+16
(PID.TID 0000.0001) %MON vort_r_min                   =  -5.5092387020993E-04
(PID.TID 0000.0001) %MON vort_r_max                   =   5.0970698820091E-04
(PID.TID 0000.0001) %MON vort_a_mean                  =   8.2147611490652E-05
(PID.TID 0000.0001) %MON vort_a_sd                    =   1.0131054025281E-05
(PID.TID 0000.0001) %MON vort_p_mean                  =   8.4848832418417E-05
(PID.TID 0000.0001) %MON vort_p_sd                    =   3.4992516319909E-05
(PID.TID 0000.0001) %MON surfExpan_theta_mean         =  -5.6311649409118E-05
(PID.TID 0000.0001) %MON surfExpan_salt_mean          =  -2.6591667465828E-04
(PID.TID 0000.0001) // =======================================================
(PID.TID 0000.0001) // End MONITOR dynamic field statistics
(PID.TID 0000.0001) // =======================================================
(PID.TID 0000.0001) // =======================================================
(PID.TID 0000.0001) // Begin OBCS MONITOR field statistics
(PID.TID 0000.0001) // =======================================================
(PID.TID 0000.0001) %MON obc_N_vVel_max               =   6.7896404599712E-01
(PID.TID 0000.0001) %MON obc_N_vVel_min               =  -7.0748492814440E-01
(PID.TID 0000.0001) %MON obc_N_vVel_mean              =  -6.3997822948756E-03
(PID.TID 0000.0001) %MON obc_N_vVel_sd                =   6.2845284256184E-02
(PID.TID 0000.0001) %MON obc_N_vVel_Int               =  -9.1613424093852E+07
(PID.TID 0000.0001) %MON obc_S_vVel_max               =   1.5921566442771E+00
(PID.TID 0000.0001) %MON obc_S_vVel_min               =  -2.5388297454549E-01
(PID.TID 0000.0001) %MON obc_S_vVel_mean              =  -5.8736667183405E-03
(PID.TID 0000.0001) %MON obc_S_vVel_sd                =   3.7002272275716E-02
(PID.TID 0000.0001) %MON obc_S_vVel_Int               =  -1.7881144661862E+08
(PID.TID 0000.0001) %MON obc_N_theta_max              =   1.6390244329854E+01
(PID.TID 0000.0001) %MON obc_N_theta_min              =   1.8895910704432E+00
(PID.TID 0000.0001) %MON obc_N_theta_mean             =   5.1589288128386E+00
(PID.TID 0000.0001) %MON obc_N_theta_sd               =   3.4826688944174E+00
(PID.TID 0000.0001) %MON obc_S_theta_max              =   2.5544222067351E+01
(PID.TID 0000.0001) %MON obc_S_theta_min              =   1.4632984148975E+00
(PID.TID 0000.0001) %MON obc_S_theta_mean             =   5.4595521450394E+00
(PID.TID 0000.0001) %MON obc_S_theta_sd               =   5.3559099369382E+00
(PID.TID 0000.0001) %MON obc_N_salt_max               =   3.5910864789416E+01
(PID.TID 0000.0001) %MON obc_N_salt_min               =   3.3295052588478E+01
(PID.TID 0000.0001) %MON obc_N_salt_mean              =   3.5114562244444E+01
(PID.TID 0000.0001) %MON obc_N_salt_sd                =   3.0984849389575E-01
(PID.TID 0000.0001) %MON obc_S_salt_max               =   3.7318298439933E+01
(PID.TID 0000.0001) %MON obc_S_salt_min               =   3.4844694679359E+01
(PID.TID 0000.0001) %MON obc_S_salt_mean              =   3.5168372435418E+01
(PID.TID 0000.0001) %MON obc_S_salt_sd                =   4.5716865026302E-01
(PID.TID 0000.0001) // =======================================================
(PID.TID 0000.0001) // End OBCS MONITOR field statistics
(PID.TID 0000.0001) // =======================================================
(PID.TID 0000.0001) // =======================================================
(PID.TID 0000.0001) // Begin MONITOR EXF statistics
(PID.TID 0000.0001) // =======================================================
(PID.TID 0000.0001) %MON exf_tsnumber                 =                     7
(PID.TID 0000.0001) %MON exf_time_sec                 =   1.6800000000000E+03
(PID.TID 0000.0001) %MON exf_ustress_max              =   8.3338697446737E-01
(PID.TID 0000.0001) %MON exf_ustress_min              =  -4.1079396428910E-01
(PID.TID 0000.0001) %MON exf_ustress_mean             =   6.3108016708649E-02
(PID.TID 0000.0001) %MON exf_ustress_sd               =   1.5488848697257E-01
(PID.TID 0000.0001) %MON exf_ustress_del2             =   3.7886244775118E-07
(PID.TID 0000.0001) %MON exf_vstress_max              =   3.9045444656933E-01
(PID.TID 0000.0001) %MON exf_vstress_min              =  -5.6185925065064E-01
(PID.TID 0000.0001) %MON exf_vstress_mean             =   1.0826966436355E-02
(PID.TID 0000.0001) %MON exf_vstress_sd               =   1.0142066767711E-01
(PID.TID 0000.0001) %MON exf_vstress_del2             =   2.6390224311059E-07
(PID.TID 0000.0001) %MON exf_hflux_max                =   1.1548704818078E+03
(PID.TID 0000.0001) %MON exf_hflux_min                =  -2.8238209248463E+02
(PID.TID 0000.0001) %MON exf_hflux_mean               =   2.3996082389133E+02
(PID.TID 0000.0001) %MON exf_hflux_sd                 =   1.4035383517443E+02
(PID.TID 0000.0001) %MON exf_hflux_del2               =   1.0910485562486E-01
(PID.TID 0000.0001) %MON exf_sflux_max                =   2.5694362183128E-07
(PID.TID 0000.0001) %MON exf_sflux_min                =  -1.6464736803462E-06
(PID.TID 0000.0001) %MON exf_sflux_mean               =   1.6991880595760E-08
(PID.TID 0000.0001) %MON exf_sflux_sd                 =   1.3056165038345E-07
(PID.TID 0000.0001) %MON exf_sflux_del2               =   5.2661973299254E-11
(PID.TID 0000.0001) %MON exf_uwind_max                =   1.9555486886986E+01
(PID.TID 0000.0001) %MON exf_uwind_min                =  -1.4933396081439E+01
(PID.TID 0000.0001) %MON exf_uwind_mean               =   2.4759101476262E+00
(PID.TID 0000.0001) %MON exf_uwind_sd                 =   6.6680967552391E+00
(PID.TID 0000.0001) %MON exf_uwind_del2               =   2.8387414585871E-03
(PID.TID 0000.0001) %MON exf_vwind_max                =   1.4375232994706E+01
(PID.TID 0000.0001) %MON exf_vwind_min                =  -1.2764049154876E+01
(PID.TID 0000.0001) %MON exf_vwind_mean               =   8.6130427584689E-01
(PID.TID 0000.0001) %MON exf_vwind_sd                 =   5.1799360852499E+00
(PID.TID 0000.0001) %MON exf_vwind_del2               =   2.0875970367106E-03
(PID.TID 0000.0001) %MON exf_wspeed_max               =   2.0319136102237E+01
(PID.TID 0000.0001) %MON exf_wspeed_min               =   1.0175650749397E-02
(PID.TID 0000.0001) %MON exf_wspeed_mean              =   7.7147077523680E+00
(PID.TID 0000.0001) %MON exf_wspeed_sd                =   4.3186239237479E+00
(PID.TID 0000.0001) %MON exf_wspeed_del2              =   3.5234238953200E-03
(PID.TID 0000.0001) %MON exf_atemp_max                =   2.9816244314634E+02
(PID.TID 0000.0001) %MON exf_atemp_min                =   2.7437255021515E+02
(PID.TID 0000.0001) %MON exf_atemp_mean               =   2.9068029835012E+02
(PID.TID 0000.0001) %MON exf_atemp_sd                 =   3.9436720807438E+00
(PID.TID 0000.0001) %MON exf_atemp_del2               =   6.8410357427056E-03
(PID.TID 0000.0001) %MON exf_aqh_max                  =   1.6773571427214E-02
(PID.TID 0000.0001) %MON exf_aqh_min                  =   2.7240000481325E-03
(PID.TID 0000.0001) %MON exf_aqh_mean                 =   9.4204554318450E-03
(PID.TID 0000.0001) %MON exf_aqh_sd                   =   2.8730375899859E-03
(PID.TID 0000.0001) %MON exf_aqh_del2                 =   3.7497943090998E-06
(PID.TID 0000.0001) %MON exf_lwflux_max               =   1.5197376810253E+02
(PID.TID 0000.0001) %MON exf_lwflux_min               =  -3.7856900625925E+00
(PID.TID 0000.0001) %MON exf_lwflux_mean              =   6.5817195747341E+01
(PID.TID 0000.0001) %MON exf_lwflux_sd                =   2.6098707983502E+01
(PID.TID 0000.0001) %MON exf_lwflux_del2              =   2.7185972439367E-02
(PID.TID 0000.0001) %MON exf_evap_max                 =   2.7800911710799E-07
(PID.TID 0000.0001) %MON exf_evap_min                 =  -9.4737372008089E-08
(PID.TID 0000.0001) %MON exf_evap_mean                =   5.9278168493262E-08
(PID.TID 0000.0001) %MON exf_evap_sd                  =   4.2035864801222E-08
(PID.TID 0000.0001) %MON exf_evap_del2                =   2.8552160455840E-11
(PID.TID 0000.0001) %MON exf_precip_max               =   1.8220998051905E-06
(PID.TID 0000.0001) %MON exf_precip_min               =   0.0000000000000E+00
(PID.TID 0000.0001) %MON exf_precip_mean              =   4.0697808492283E-08
(PID.TID 0000.0001) %MON exf_precip_sd                =   1.3500754762119E-07
(PID.TID 0000.0001) %MON exf_precip_del2              =   5.7110364197837E-11
(PID.TID 0000.0001) %MON exf_swflux_max               =   0.0000000000000E+00
(PID.TID 0000.0001) %MON exf_swflux_min               =   0.0000000000000E+00
(PID.TID 0000.0001) %MON exf_swflux_mean              =   0.0000000000000E+00
(PID.TID 0000.0001) %MON exf_swflux_sd                =   0.0000000000000E+00
(PID.TID 0000.0001) %MON exf_swflux_del2              =   0.0000000000000E+00
(PID.TID 0000.0001) %MON exf_swdown_max               =   0.0000000000000E+00
(PID.TID 0000.0001) %MON exf_swdown_min               =   0.0000000000000E+00
(PID.TID 0000.0001) %MON exf_swdown_mean              =   0.0000000000000E+00
(PID.TID 0000.0001) %MON exf_swdown_sd                =   0.0000000000000E+00
(PID.TID 0000.0001) %MON exf_swdown_del2              =   0.0000000000000E+00
(PID.TID 0000.0001) %MON exf_lwdown_max               =   4.1505412793497E+02
(PID.TID 0000.0001) %MON exf_lwdown_min               =   2.2448607473773E+02
(PID.TID 0000.0001) %MON exf_lwdown_mean              =   3.4921813338793E+02
(PID.TID 0000.0001) %MON exf_lwdown_sd                =   3.1302832687846E+01
(PID.TID 0000.0001) %MON exf_lwdown_del2              =   1.3523559000391E-01
(PID.TID 0000.0001) %MON exf_apressure_max            =   1.0279678232205E+05
(PID.TID 0000.0001) %MON exf_apressure_min            =   1.0000622433023E+05
(PID.TID 0000.0001) %MON exf_apressure_mean           =   1.0216451992626E+05
(PID.TID 0000.0001) %MON exf_apressure_sd             =   4.9900957732261E+02
(PID.TID 0000.0001) %MON exf_apressure_del2           =   3.9519408083682E+01
(PID.TID 0000.0001) %MON exf_runoff_max               =   4.4374791284855E-08
(PID.TID 0000.0001) %MON exf_runoff_min               =   0.0000000000000E+00
(PID.TID 0000.0001) %MON exf_runoff_mean              =   1.5884794052194E-09
(PID.TID 0000.0001) %MON exf_runoff_sd                =   5.3901957917178E-09
(PID.TID 0000.0001) %MON exf_runoff_del2              =   2.2191214937507E-12
(PID.TID 0000.0001) // =======================================================
(PID.TID 0000.0001) // End MONITOR EXF statistics
(PID.TID 0000.0001) // =======================================================
 cg2d: Sum(rhs),rhsMax =   5.82527378104701E+02  1.88341355377808E-01
(PID.TID 0000.0001)      cg2d_init_res =   1.41538272283081E+00
(PID.TID 0000.0001)      cg2d_iters(min,last) =      -1     314
(PID.TID 0000.0001)      cg2d_last_res =   6.49864630944859E-12
(PID.TID 0000.0001) // =======================================================
(PID.TID 0000.0001) // Begin MONITOR dynamic field statistics
(PID.TID 0000.0001) // =======================================================
(PID.TID 0000.0001) %MON time_tsnumber                =                     8
(PID.TID 0000.0001) %MON time_secondsf                =   1.9200000000000E+03
(PID.TID 0000.0001) %MON dynstat_eta_max              =   1.3900885354279E+00
(PID.TID 0000.0001) %MON dynstat_eta_min              =  -8.8065950208171E-01
(PID.TID 0000.0001) %MON dynstat_eta_mean             =  -1.9810067437678E-02
(PID.TID 0000.0001) %MON dynstat_eta_sd               =   1.9280466266942E-01
(PID.TID 0000.0001) %MON dynstat_eta_del2             =   2.4093285685559E-06
(PID.TID 0000.0001) %MON dynstat_uvel_max             =   1.2987143004229E+00
(PID.TID 0000.0001) %MON dynstat_uvel_min             =  -7.0420146725693E-01
(PID.TID 0000.0001) %MON dynstat_uvel_mean            =   2.2445295853604E-03
(PID.TID 0000.0001) %MON dynstat_uvel_sd              =   5.2263891579853E-02
(PID.TID 0000.0001) %MON dynstat_uvel_del2            =   4.8761588848391E-07
(PID.TID 0000.0001) %MON dynstat_vvel_max             =   1.8688859263881E+00
(PID.TID 0000.0001) %MON dynstat_vvel_min             =  -9.1534645376338E-01
(PID.TID 0000.0001) %MON dynstat_vvel_mean            =  -7.6161807040296E-03
(PID.TID 0000.0001) %MON dynstat_vvel_sd              =   4.8152943806159E-02
(PID.TID 0000.0001) %MON dynstat_vvel_del2            =   4.5222566017393E-07
(PID.TID 0000.0001) %MON dynstat_wvel_max             =   3.5627958566549E-02
(PID.TID 0000.0001) %MON dynstat_wvel_min             =  -2.8346117814411E-02
(PID.TID 0000.0001) %MON dynstat_wvel_mean            =  -5.2045972411786E-06
(PID.TID 0000.0001) %MON dynstat_wvel_sd              =   5.8981780474518E-04
(PID.TID 0000.0001) %MON dynstat_wvel_del2            =   7.4688993512441E-08
(PID.TID 0000.0001) %MON dynstat_theta_max            =   2.6138862126624E+01
(PID.TID 0000.0001) %MON dynstat_theta_min            =   1.4688647016993E+00
(PID.TID 0000.0001) %MON dynstat_theta_mean           =   5.5098914481494E+00
(PID.TID 0000.0001) %MON dynstat_theta_sd             =   4.7734817073439E+00
(PID.TID 0000.0001) %MON dynstat_theta_del2           =   3.9981616961352E-06
(PID.TID 0000.0001) %MON dynstat_salt_max             =   3.9167319797442E+01
(PID.TID 0000.0001) %MON dynstat_salt_min             =   3.3095128095670E+01
(PID.TID 0000.0001) %MON dynstat_salt_mean            =   3.5173373952249E+01
(PID.TID 0000.0001) %MON dynstat_salt_sd              =   3.7892687944814E-01
(PID.TID 0000.0001) %MON dynstat_salt_del2            =   5.1366876302569E-07
(PID.TID 0000.0001) %MON forcing_qnet_max             =   1.1723818199670E+03
(PID.TID 0000.0001) %MON forcing_qnet_min             =  -2.8720327122813E+02
(PID.TID 0000.0001) %MON forcing_qnet_mean            =   2.4206027239231E+02
(PID.TID 0000.0001) %MON forcing_qnet_sd              =   1.4218657494786E+02
(PID.TID 0000.0001) %MON forcing_qnet_del2            =   1.6784763511821E-03
(PID.TID 0000.0001) %MON forcing_qsw_max              =   0.0000000000000E+00
(PID.TID 0000.0001) %MON forcing_qsw_min              =   0.0000000000000E+00
(PID.TID 0000.0001) %MON forcing_qsw_mean             =   0.0000000000000E+00
(PID.TID 0000.0001) %MON forcing_qsw_sd               =   0.0000000000000E+00
(PID.TID 0000.0001) %MON forcing_qsw_del2             =   0.0000000000000E+00
(PID.TID 0000.0001) %MON forcing_empmr_max            =   2.5694362183128E-04
(PID.TID 0000.0001) %MON forcing_empmr_min            =  -1.6464736803462E-03
(PID.TID 0000.0001) %MON forcing_empmr_mean           =   1.6991880595760E-05
(PID.TID 0000.0001) %MON forcing_empmr_sd             =   1.3056165038345E-04
(PID.TID 0000.0001) %MON forcing_empmr_del2           =   3.3491670326726E-09
(PID.TID 0000.0001) %MON forcing_fu_max               =   8.3291304593586E-01
(PID.TID 0000.0001) %MON forcing_fu_min               =  -4.1074287766966E-01
(PID.TID 0000.0001) %MON forcing_fu_mean              =   6.3166826204872E-02
(PID.TID 0000.0001) %MON forcing_fu_sd                =   1.5494828754254E-01
(PID.TID 0000.0001) %MON forcing_fu_del2              =   3.3742730935813E-07
(PID.TID 0000.0001) %MON forcing_fv_max               =   3.9022452527411E-01
(PID.TID 0000.0001) %MON forcing_fv_min               =  -5.6554906406757E-01
(PID.TID 0000.0001) %MON forcing_fv_mean              =   1.0808705719056E-02
(PID.TID 0000.0001) %MON forcing_fv_sd                =   1.0155177823965E-01
(PID.TID 0000.0001) %MON forcing_fv_del2              =   2.4363732153846E-07
(PID.TID 0000.0001) %MON trAdv_CFL_u_max              =   7.8793987386247E-02
(PID.TID 0000.0001) %MON trAdv_CFL_v_max              =   1.1857885150125E-01
(PID.TID 0000.0001) %MON trAdv_CFL_w_max              =   5.3591556910957E-01
(PID.TID 0000.0001) %MON advcfl_uvel_max              =   7.8793986313396E-02
(PID.TID 0000.0001) %MON advcfl_vvel_max              =   1.1861371828045E-01
(PID.TID 0000.0001) %MON advcfl_wvel_max              =   5.3176118485290E-01
(PID.TID 0000.0001) %MON advcfl_W_hf_max              =   5.3591556910957E-01
(PID.TID 0000.0001) %MON pe_b_mean                    =  -4.4030060041692E-04
(PID.TID 0000.0001) %MON ke_max                       =   1.7479410511957E+00
(PID.TID 0000.0001) %MON ke_mean                      =   2.5377672724956E-03
(PID.TID 0000.0001) %MON ke_vol                       =   4.5818637279721E+16
(PID.TID 0000.0001) %MON vort_r_min                   =  -5.5707425339663E-04
(PID.TID 0000.0001) %MON vort_r_max                   =   5.1740544540139E-04
(PID.TID 0000.0001) %MON vort_a_mean                  =   8.2147611694226E-05
(PID.TID 0000.0001) %MON vort_a_sd                    =   1.0134081430181E-05
(PID.TID 0000.0001) %MON vort_p_mean                  =   8.4848832628685E-05
(PID.TID 0000.0001) %MON vort_p_sd                    =   3.4996033911274E-05
(PID.TID 0000.0001) %MON surfExpan_theta_mean         =  -2.5913929934543E-05
(PID.TID 0000.0001) %MON surfExpan_salt_mean          =  -2.2684418943504E-04
(PID.TID 0000.0001) // =======================================================
(PID.TID 0000.0001) // End MONITOR dynamic field statistics
(PID.TID 0000.0001) // =======================================================
(PID.TID 0000.0001) // =======================================================
(PID.TID 0000.0001) // Begin OBCS MONITOR field statistics
(PID.TID 0000.0001) // =======================================================
(PID.TID 0000.0001) %MON obc_N_vVel_max               =   6.7885692624752E-01
(PID.TID 0000.0001) %MON obc_N_vVel_min               =  -7.0762065065741E-01
(PID.TID 0000.0001) %MON obc_N_vVel_mean              =  -6.5048900661022E-03
(PID.TID 0000.0001) %MON obc_N_vVel_sd                =   6.2852825289112E-02
(PID.TID 0000.0001) %MON obc_N_vVel_Int               =  -9.3118050716644E+07
(PID.TID 0000.0001) %MON obc_S_vVel_max               =   1.5930436035018E+00
(PID.TID 0000.0001) %MON obc_S_vVel_min               =  -2.5380860246295E-01
(PID.TID 0000.0001) %MON obc_S_vVel_mean              =  -5.5242709574200E-03
(PID.TID 0000.0001) %MON obc_S_vVel_sd                =   3.7001640311580E-02
(PID.TID 0000.0001) %MON obc_S_vVel_Int               =  -1.6817482652277E+08
(PID.TID 0000.0001) %MON obc_N_theta_max              =   1.6390156227667E+01
(PID.TID 0000.0001) %MON obc_N_theta_min              =   1.8895911195086E+00
(PID.TID 0000.0001) %MON obc_N_theta_mean             =   5.1589214286885E+00
(PID.TID 0000.0001) %MON obc_N_theta_sd               =   3.4826596030751E+00
(PID.TID 0000.0001) %MON obc_S_theta_max              =   2.5544119318571E+01
(PID.TID 0000.0001) %MON obc_S_theta_min              =   1.4632988111847E+00
(PID.TID 0000.0001) %MON obc_S_theta_mean             =   5.4595513400148E+00
(PID.TID 0000.0001) %MON obc_S_theta_sd               =   5.3559060658268E+00
(PID.TID 0000.0001) %MON obc_N_salt_max               =   3.5910864381053E+01
(PID.TID 0000.0001) %MON obc_N_salt_min               =   3.3295058091112E+01
(PID.TID 0000.0001) %MON obc_N_salt_mean              =   3.5114561948457E+01
(PID.TID 0000.0001) %MON obc_N_salt_sd                =   3.0984837466746E-01
(PID.TID 0000.0001) %MON obc_S_salt_max               =   3.7318291555549E+01
(PID.TID 0000.0001) %MON obc_S_salt_min               =   3.4844694731580E+01
(PID.TID 0000.0001) %MON obc_S_salt_mean              =   3.5168372363502E+01
(PID.TID 0000.0001) %MON obc_S_salt_sd                =   4.5716829920709E-01
(PID.TID 0000.0001) // =======================================================
(PID.TID 0000.0001) // End OBCS MONITOR field statistics
(PID.TID 0000.0001) // =======================================================
(PID.TID 0000.0001)  EXF_INTERP_READ: opening file: era_forcing/ERA5_rain_2008
(PID.TID 0000.0001)  EXF_INTERP_READ: opening file: era_forcing/ERA5_dsw_2008
(PID.TID 0000.0001)  EXF_INTERP_READ: opening file: era_forcing/ERA5_dlw_2008
(PID.TID 0000.0001) // =======================================================
(PID.TID 0000.0001) // Begin MONITOR EXF statistics
(PID.TID 0000.0001) // =======================================================
(PID.TID 0000.0001) %MON exf_tsnumber                 =                     8
(PID.TID 0000.0001) %MON exf_time_sec                 =   1.9200000000000E+03
(PID.TID 0000.0001) %MON exf_ustress_max              =   8.4368199860372E-01
(PID.TID 0000.0001) %MON exf_ustress_min              =  -4.0810698416435E-01
(PID.TID 0000.0001) %MON exf_ustress_mean             =   6.3210673670326E-02
(PID.TID 0000.0001) %MON exf_ustress_sd               =   1.5485930265176E-01
(PID.TID 0000.0001) %MON exf_ustress_del2             =   3.7977807378486E-07
(PID.TID 0000.0001) %MON exf_vstress_max              =   3.9022943000521E-01
(PID.TID 0000.0001) %MON exf_vstress_min              =  -5.6201494983389E-01
(PID.TID 0000.0001) %MON exf_vstress_mean             =   1.0883132154589E-02
(PID.TID 0000.0001) %MON exf_vstress_sd               =   1.0141549651912E-01
(PID.TID 0000.0001) %MON exf_vstress_del2             =   2.6698668208438E-07
(PID.TID 0000.0001) %MON exf_hflux_max                =   1.1599720583063E+03
(PID.TID 0000.0001) %MON exf_hflux_min                =  -2.8594185061472E+02
(PID.TID 0000.0001) %MON exf_hflux_mean               =   2.3954646106430E+02
(PID.TID 0000.0001) %MON exf_hflux_sd                 =   1.4021166829537E+02
(PID.TID 0000.0001) %MON exf_hflux_del2               =   1.0894734854975E-01
(PID.TID 0000.0001) %MON exf_sflux_max                =   2.5585054837553E-07
(PID.TID 0000.0001) %MON exf_sflux_min                =  -1.7183933477447E-06
(PID.TID 0000.0001) %MON exf_sflux_mean               =   1.7319556138649E-08
(PID.TID 0000.0001) %MON exf_sflux_sd                 =   1.3420346321788E-07
(PID.TID 0000.0001) %MON exf_sflux_del2               =   5.4089606907840E-11
(PID.TID 0000.0001) %MON exf_uwind_max                =   1.9623080733612E+01
(PID.TID 0000.0001) %MON exf_uwind_min                =  -1.4901925240099E+01
(PID.TID 0000.0001) %MON exf_uwind_mean               =   2.4778562235787E+00
(PID.TID 0000.0001) %MON exf_uwind_sd                 =   6.6669433679190E+00
(PID.TID 0000.0001) %MON exf_uwind_del2               =   2.8385711194329E-03
(PID.TID 0000.0001) %MON exf_vwind_max                =   1.4390488418720E+01
(PID.TID 0000.0001) %MON exf_vwind_min                =  -1.2766068683095E+01
(PID.TID 0000.0001) %MON exf_vwind_mean               =   8.6355813687874E-01
(PID.TID 0000.0001) %MON exf_vwind_sd                 =   5.1774289945742E+00
(PID.TID 0000.0001) %MON exf_vwind_del2               =   2.0870666221709E-03
(PID.TID 0000.0001) %MON exf_wspeed_max               =   2.0292318243107E+01
(PID.TID 0000.0001) %MON exf_wspeed_min               =   2.8385492480213E-03
(PID.TID 0000.0001) %MON exf_wspeed_mean              =   7.7124252967605E+00
(PID.TID 0000.0001) %MON exf_wspeed_sd                =   4.3194797171978E+00
(PID.TID 0000.0001) %MON exf_wspeed_del2              =   3.5229733170818E-03
(PID.TID 0000.0001) %MON exf_atemp_max                =   2.9816024585792E+02
(PID.TID 0000.0001) %MON exf_atemp_min                =   2.7434694900651E+02
(PID.TID 0000.0001) %MON exf_atemp_mean               =   2.9067717714392E+02
(PID.TID 0000.0001) %MON exf_atemp_sd                 =   3.9439908504319E+00
(PID.TID 0000.0001) %MON exf_atemp_del2               =   6.8398384934223E-03
(PID.TID 0000.0001) %MON exf_aqh_max                  =   1.6766585126340E-02
(PID.TID 0000.0001) %MON exf_aqh_min                  =   2.7217053503686E-03
(PID.TID 0000.0001) %MON exf_aqh_mean                 =   9.4192672790309E-03
(PID.TID 0000.0001) %MON exf_aqh_sd                   =   2.8735677177259E-03
(PID.TID 0000.0001) %MON exf_aqh_del2                 =   3.7493261346545E-06
(PID.TID 0000.0001) %MON exf_lwflux_max               =   1.5286015302646E+02
(PID.TID 0000.0001) %MON exf_lwflux_min               =  -6.8273894078598E+00
(PID.TID 0000.0001) %MON exf_lwflux_mean              =   6.5420306265377E+01
(PID.TID 0000.0001) %MON exf_lwflux_sd                =   2.6803671865147E+01
(PID.TID 0000.0001) %MON exf_lwflux_del2              =   2.7144136104401E-02
(PID.TID 0000.0001) %MON exf_evap_max                 =   2.7965890288370E-07
(PID.TID 0000.0001) %MON exf_evap_min                 =  -9.5489352089281E-08
(PID.TID 0000.0001) %MON exf_evap_mean                =   5.9265478757841E-08
(PID.TID 0000.0001) %MON exf_evap_sd                  =   4.2026356258732E-08
(PID.TID 0000.0001) %MON exf_evap_del2                =   2.8550932096851E-11
(PID.TID 0000.0001) %MON exf_precip_max               =   1.8946560964359E-06
(PID.TID 0000.0001) %MON exf_precip_min               =   0.0000000000000E+00
(PID.TID 0000.0001) %MON exf_precip_mean              =   4.0357443213972E-08
(PID.TID 0000.0001) %MON exf_precip_sd                =   1.3917898192904E-07
(PID.TID 0000.0001) %MON exf_precip_del2              =   5.8637754918718E-11
(PID.TID 0000.0001) %MON exf_swflux_max               =   0.0000000000000E+00
(PID.TID 0000.0001) %MON exf_swflux_min               =   0.0000000000000E+00
(PID.TID 0000.0001) %MON exf_swflux_mean              =   0.0000000000000E+00
(PID.TID 0000.0001) %MON exf_swflux_sd                =   0.0000000000000E+00
(PID.TID 0000.0001) %MON exf_swflux_del2              =   0.0000000000000E+00
(PID.TID 0000.0001) %MON exf_swdown_max               =   0.0000000000000E+00
(PID.TID 0000.0001) %MON exf_swdown_min               =   0.0000000000000E+00
(PID.TID 0000.0001) %MON exf_swdown_mean              =   0.0000000000000E+00
(PID.TID 0000.0001) %MON exf_swdown_sd                =   0.0000000000000E+00
(PID.TID 0000.0001) %MON exf_swdown_del2              =   0.0000000000000E+00
(PID.TID 0000.0001) %MON exf_lwdown_max               =   4.1825042980031E+02
(PID.TID 0000.0001) %MON exf_lwdown_min               =   2.2314382656222E+02
(PID.TID 0000.0001) %MON exf_lwdown_mean              =   3.4962240595456E+02
(PID.TID 0000.0001) %MON exf_lwdown_sd                =   3.1990071459670E+01
(PID.TID 0000.0001) %MON exf_lwdown_del2              =   1.3541860043837E-01
(PID.TID 0000.0001) %MON exf_apressure_max            =   1.0279973710513E+05
(PID.TID 0000.0001) %MON exf_apressure_min            =   1.0000974426508E+05
(PID.TID 0000.0001) %MON exf_apressure_mean           =   1.0216529723281E+05
(PID.TID 0000.0001) %MON exf_apressure_sd             =   4.9888638326062E+02
(PID.TID 0000.0001) %MON exf_apressure_del2           =   3.9519715493445E+01
(PID.TID 0000.0001) %MON exf_runoff_max               =   4.4374791284855E-08
(PID.TID 0000.0001) %MON exf_runoff_min               =   0.0000000000000E+00
(PID.TID 0000.0001) %MON exf_runoff_mean              =   1.5884794052194E-09
(PID.TID 0000.0001) %MON exf_runoff_sd                =   5.3901957917178E-09
(PID.TID 0000.0001) %MON exf_runoff_del2              =   2.2191214937507E-12
(PID.TID 0000.0001) // =======================================================
(PID.TID 0000.0001) // End MONITOR EXF statistics
(PID.TID 0000.0001) // =======================================================
 cg2d: Sum(rhs),rhsMax =   6.21750978593553E+02  1.61875569540914E-01
(PID.TID 0000.0001)      cg2d_init_res =   1.51299994515178E+00
(PID.TID 0000.0001)      cg2d_iters(min,last) =      -1     313
(PID.TID 0000.0001)      cg2d_last_res =   6.82731765952352E-12
(PID.TID 0000.0001) // =======================================================
(PID.TID 0000.0001) // Begin MONITOR dynamic field statistics
(PID.TID 0000.0001) // =======================================================
(PID.TID 0000.0001) %MON time_tsnumber                =                     9
(PID.TID 0000.0001) %MON time_secondsf                =   2.1600000000000E+03
(PID.TID 0000.0001) %MON dynstat_eta_max              =   1.3829478587998E+00
(PID.TID 0000.0001) %MON dynstat_eta_min              =  -9.1713342168077E-01
(PID.TID 0000.0001) %MON dynstat_eta_mean             =  -2.1143948384803E-02
(PID.TID 0000.0001) %MON dynstat_eta_sd               =   2.0203116716376E-01
(PID.TID 0000.0001) %MON dynstat_eta_del2             =   2.4089754229903E-06
(PID.TID 0000.0001) %MON dynstat_uvel_max             =   1.2957128116060E+00
(PID.TID 0000.0001) %MON dynstat_uvel_min             =  -7.0261078693050E-01
(PID.TID 0000.0001) %MON dynstat_uvel_mean            =   1.8861682440261E-03
(PID.TID 0000.0001) %MON dynstat_uvel_sd              =   5.2212580730325E-02
(PID.TID 0000.0001) %MON dynstat_uvel_del2            =   4.9740666724718E-07
(PID.TID 0000.0001) %MON dynstat_vvel_max             =   1.8731035019541E+00
(PID.TID 0000.0001) %MON dynstat_vvel_min             =  -9.1729664948885E-01
(PID.TID 0000.0001) %MON dynstat_vvel_mean            =  -8.2846508562825E-03
(PID.TID 0000.0001) %MON dynstat_vvel_sd              =   4.8216252901395E-02
(PID.TID 0000.0001) %MON dynstat_vvel_del2            =   4.6168173232602E-07
(PID.TID 0000.0001) %MON dynstat_wvel_max             =   3.5174730620142E-02
(PID.TID 0000.0001) %MON dynstat_wvel_min             =  -2.9053357850170E-02
(PID.TID 0000.0001) %MON dynstat_wvel_mean            =  -4.5474226288628E-06
(PID.TID 0000.0001) %MON dynstat_wvel_sd              =   5.9428164541086E-04
(PID.TID 0000.0001) %MON dynstat_wvel_del2            =   7.5246104975378E-08
(PID.TID 0000.0001) %MON dynstat_theta_max            =   2.6140365226442E+01
(PID.TID 0000.0001) %MON dynstat_theta_min            =   1.4688647815347E+00
(PID.TID 0000.0001) %MON dynstat_theta_mean           =   5.5098856033837E+00
(PID.TID 0000.0001) %MON dynstat_theta_sd             =   4.7734588839112E+00
(PID.TID 0000.0001) %MON dynstat_theta_del2           =   4.0005968427243E-06
(PID.TID 0000.0001) %MON dynstat_salt_max             =   3.9163812276836E+01
(PID.TID 0000.0001) %MON dynstat_salt_min             =   3.3096038520038E+01
(PID.TID 0000.0001) %MON dynstat_salt_mean            =   3.5173373361511E+01
(PID.TID 0000.0001) %MON dynstat_salt_sd              =   3.7892643915729E-01
(PID.TID 0000.0001) %MON dynstat_salt_del2            =   5.1738242388309E-07
(PID.TID 0000.0001) %MON forcing_qnet_max             =   1.1776586224149E+03
(PID.TID 0000.0001) %MON forcing_qnet_min             =  -2.9074064284208E+02
(PID.TID 0000.0001) %MON forcing_qnet_mean            =   2.4167857724415E+02
(PID.TID 0000.0001) %MON forcing_qnet_sd              =   1.4196052478255E+02
(PID.TID 0000.0001) %MON forcing_qnet_del2            =   1.6768159748340E-03
(PID.TID 0000.0001) %MON forcing_qsw_max              =   0.0000000000000E+00
(PID.TID 0000.0001) %MON forcing_qsw_min              =   0.0000000000000E+00
(PID.TID 0000.0001) %MON forcing_qsw_mean             =   0.0000000000000E+00
(PID.TID 0000.0001) %MON forcing_qsw_sd               =   0.0000000000000E+00
(PID.TID 0000.0001) %MON forcing_qsw_del2             =   0.0000000000000E+00
(PID.TID 0000.0001) %MON forcing_empmr_max            =   2.5585054837553E-04
(PID.TID 0000.0001) %MON forcing_empmr_min            =  -1.7183933477447E-03
(PID.TID 0000.0001) %MON forcing_empmr_mean           =   1.7319556138649E-05
(PID.TID 0000.0001) %MON forcing_empmr_sd             =   1.3420346321788E-04
(PID.TID 0000.0001) %MON forcing_empmr_del2           =   3.3582561534311E-09
(PID.TID 0000.0001) %MON forcing_fu_max               =   8.4296957932427E-01
(PID.TID 0000.0001) %MON forcing_fu_min               =  -4.0808648877364E-01
(PID.TID 0000.0001) %MON forcing_fu_mean              =   6.3269957041647E-02
(PID.TID 0000.0001) %MON forcing_fu_sd                =   1.5491927477881E-01
(PID.TID 0000.0001) %MON forcing_fu_del2              =   3.3852103589698E-07
(PID.TID 0000.0001) %MON forcing_fv_max               =   3.9014646784253E-01
(PID.TID 0000.0001) %MON forcing_fv_min               =  -5.6583029354990E-01
(PID.TID 0000.0001) %MON forcing_fv_mean              =   1.0865145824483E-02
(PID.TID 0000.0001) %MON forcing_fv_sd                =   1.0154687946016E-01
(PID.TID 0000.0001) %MON forcing_fv_del2              =   2.4668652470124E-07
(PID.TID 0000.0001) %MON trAdv_CFL_u_max              =   7.8611884769910E-02
(PID.TID 0000.0001) %MON trAdv_CFL_v_max              =   1.1884645224653E-01
(PID.TID 0000.0001) %MON trAdv_CFL_w_max              =   5.3097743321648E-01
(PID.TID 0000.0001) %MON advcfl_uvel_max              =   7.8611883699539E-02
(PID.TID 0000.0001) %MON advcfl_vvel_max              =   1.1888139771072E-01
(PID.TID 0000.0001) %MON advcfl_wvel_max              =   5.2686132908302E-01
(PID.TID 0000.0001) %MON advcfl_W_hf_max              =   5.3097743321648E-01
(PID.TID 0000.0001) %MON pe_b_mean                    =  -4.6829184684685E-04
(PID.TID 0000.0001) %MON ke_max                       =   1.7563712166136E+00
(PID.TID 0000.0001) %MON ke_mean                      =   2.5426940123955E-03
(PID.TID 0000.0001) %MON ke_vol                       =   4.5818637279721E+16
(PID.TID 0000.0001) %MON vort_r_min                   =  -5.6092853243207E-04
(PID.TID 0000.0001) %MON vort_r_max                   =   5.2510625290620E-04
(PID.TID 0000.0001) %MON vort_a_mean                  =   8.2147611912096E-05
(PID.TID 0000.0001) %MON vort_a_sd                    =   1.0137247419555E-05
(PID.TID 0000.0001) %MON vort_p_mean                  =   8.4848832853718E-05
(PID.TID 0000.0001) %MON vort_p_sd                    =   3.5000130283240E-05
(PID.TID 0000.0001) %MON surfExpan_theta_mean         =   3.2185128645452E-06
(PID.TID 0000.0001) %MON surfExpan_salt_mean          =  -1.8774085074434E-04
(PID.TID 0000.0001) // =======================================================
(PID.TID 0000.0001) // End MONITOR dynamic field statistics
(PID.TID 0000.0001) // =======================================================
(PID.TID 0000.0001) // =======================================================
(PID.TID 0000.0001) // Begin OBCS MONITOR field statistics
(PID.TID 0000.0001) // =======================================================
(PID.TID 0000.0001) %MON obc_N_vVel_max               =   6.7874933809623E-01
(PID.TID 0000.0001) %MON obc_N_vVel_min               =  -7.0707336253403E-01
(PID.TID 0000.0001) %MON obc_N_vVel_mean              =  -6.6019635859881E-03
(PID.TID 0000.0001) %MON obc_N_vVel_sd                =   6.2857658850790E-02
(PID.TID 0000.0001) %MON obc_N_vVel_Int               =  -9.4507666352901E+07
(PID.TID 0000.0001) %MON obc_S_vVel_max               =   1.5939053066613E+00
(PID.TID 0000.0001) %MON obc_S_vVel_min               =  -2.5374103075597E-01
(PID.TID 0000.0001) %MON obc_S_vVel_mean              =  -5.1676866428426E-03
(PID.TID 0000.0001) %MON obc_S_vVel_sd                =   3.7000080272990E-02
(PID.TID 0000.0001) %MON obc_S_vVel_Int               =  -1.5731936600916E+08
(PID.TID 0000.0001) %MON obc_N_theta_max              =   1.6390068125480E+01
(PID.TID 0000.0001) %MON obc_N_theta_min              =   1.8895911685740E+00
(PID.TID 0000.0001) %MON obc_N_theta_mean             =   5.1589140445385E+00
(PID.TID 0000.0001) %MON obc_N_theta_sd               =   3.4826503119707E+00
(PID.TID 0000.0001) %MON obc_S_theta_max              =   2.5544016569792E+01
(PID.TID 0000.0001) %MON obc_S_theta_min              =   1.4632992074720E+00
(PID.TID 0000.0001) %MON obc_S_theta_mean             =   5.4595505349902E+00
(PID.TID 0000.0001) %MON obc_S_theta_sd               =   5.3559021947514E+00
(PID.TID 0000.0001) %MON obc_N_salt_max               =   3.5910863972689E+01
(PID.TID 0000.0001) %MON obc_N_salt_min               =   3.3295063593745E+01
(PID.TID 0000.0001) %MON obc_N_salt_mean              =   3.5114561652470E+01
(PID.TID 0000.0001) %MON obc_N_salt_sd                =   3.0984825547911E-01
(PID.TID 0000.0001) %MON obc_S_salt_max               =   3.7318284671165E+01
(PID.TID 0000.0001) %MON obc_S_salt_min               =   3.4844694783800E+01
(PID.TID 0000.0001) %MON obc_S_salt_mean              =   3.5168372291585E+01
(PID.TID 0000.0001) %MON obc_S_salt_sd                =   4.5716794816063E-01
(PID.TID 0000.0001) // =======================================================
(PID.TID 0000.0001) // End OBCS MONITOR field statistics
(PID.TID 0000.0001) // =======================================================
(PID.TID 0000.0001) // =======================================================
(PID.TID 0000.0001) // Begin MONITOR EXF statistics
(PID.TID 0000.0001) // =======================================================
(PID.TID 0000.0001) %MON exf_tsnumber                 =                     9
(PID.TID 0000.0001) %MON exf_time_sec                 =   2.1600000000000E+03
(PID.TID 0000.0001) %MON exf_ustress_max              =   8.5437476768534E-01
(PID.TID 0000.0001) %MON exf_ustress_min              =  -4.0556973549239E-01
(PID.TID 0000.0001) %MON exf_ustress_mean             =   6.3338442125610E-02
(PID.TID 0000.0001) %MON exf_ustress_sd               =   1.5490496811948E-01
(PID.TID 0000.0001) %MON exf_ustress_del2             =   3.8407517996450E-07
(PID.TID 0000.0001) %MON exf_vstress_max              =   3.9155521113216E-01
(PID.TID 0000.0001) %MON exf_vstress_min              =  -5.6279301594669E-01
(PID.TID 0000.0001) %MON exf_vstress_mean             =   1.0945983568941E-02
(PID.TID 0000.0001) %MON exf_vstress_sd               =   1.0147814171368E-01
(PID.TID 0000.0001) %MON exf_vstress_del2             =   2.7326049892397E-07
(PID.TID 0000.0001) %MON exf_hflux_max                =   1.1663530064706E+03
(PID.TID 0000.0001) %MON exf_hflux_min                =  -2.8839603168148E+02
(PID.TID 0000.0001) %MON exf_hflux_mean               =   2.3953558317381E+02
(PID.TID 0000.0001) %MON exf_hflux_sd                 =   1.4029952451621E+02
(PID.TID 0000.0001) %MON exf_hflux_del2               =   1.0897800034685E-01
(PID.TID 0000.0001) %MON exf_sflux_max                =   2.5651072449603E-07
(PID.TID 0000.0001) %MON exf_sflux_min                =  -1.7372090946089E-06
(PID.TID 0000.0001) %MON exf_sflux_mean               =   1.7071556129339E-08
(PID.TID 0000.0001) %MON exf_sflux_sd                 =   1.3329032780380E-07
(PID.TID 0000.0001) %MON exf_sflux_del2               =   5.3575008653947E-11
(PID.TID 0000.0001) %MON exf_uwind_max                =   1.9727383675779E+01
(PID.TID 0000.0001) %MON exf_uwind_min                =  -1.4873212844207E+01
(PID.TID 0000.0001) %MON exf_uwind_mean               =   2.4798553332768E+00
(PID.TID 0000.0001) %MON exf_uwind_sd                 =   6.6665607947947E+00
(PID.TID 0000.0001) %MON exf_uwind_del2               =   2.8386960757886E-03
(PID.TID 0000.0001) %MON exf_vwind_max                =   1.4419366695591E+01
(PID.TID 0000.0001) %MON exf_vwind_min                =  -1.2772055164365E+01
(PID.TID 0000.0001) %MON exf_vwind_mean               =   8.6576866202154E-01
(PID.TID 0000.0001) %MON exf_vwind_sd                 =   5.1764590526081E+00
(PID.TID 0000.0001) %MON exf_vwind_del2               =   2.0871473690410E-03
(PID.TID 0000.0001) %MON exf_wspeed_max               =   2.0275304209898E+01
(PID.TID 0000.0001) %MON exf_wspeed_min               =   1.2416737437050E-02
(PID.TID 0000.0001) %MON exf_wspeed_mean              =   7.7113189215437E+00
(PID.TID 0000.0001) %MON exf_wspeed_sd                =   4.3212914151193E+00
(PID.TID 0000.0001) %MON exf_wspeed_del2              =   3.5231189719210E-03
(PID.TID 0000.0001) %MON exf_atemp_max                =   2.9815804856951E+02
(PID.TID 0000.0001) %MON exf_atemp_min                =   2.7432134779787E+02
(PID.TID 0000.0001) %MON exf_atemp_mean               =   2.9067405593773E+02
(PID.TID 0000.0001) %MON exf_atemp_sd                 =   3.9444520568666E+00
(PID.TID 0000.0001) %MON exf_atemp_del2               =   6.8386549877382E-03
(PID.TID 0000.0001) %MON exf_aqh_max                  =   1.6759598825467E-02
(PID.TID 0000.0001) %MON exf_aqh_min                  =   2.7194106526046E-03
(PID.TID 0000.0001) %MON exf_aqh_mean                 =   9.4180791262168E-03
(PID.TID 0000.0001) %MON exf_aqh_sd                   =   2.8742704570836E-03
(PID.TID 0000.0001) %MON exf_aqh_del2                 =   3.7488797611757E-06
(PID.TID 0000.0001) %MON exf_lwflux_max               =   1.5313199470703E+02
(PID.TID 0000.0001) %MON exf_lwflux_min               =  -4.6269337924407E+00
(PID.TID 0000.0001) %MON exf_lwflux_mean              =   6.5401807009086E+01
(PID.TID 0000.0001) %MON exf_lwflux_sd                =   2.6703340698544E+01
(PID.TID 0000.0001) %MON exf_lwflux_del2              =   2.7119687712087E-02
(PID.TID 0000.0001) %MON exf_evap_max                 =   2.8137329906301E-07
(PID.TID 0000.0001) %MON exf_evap_min                 =  -9.6300610608344E-08
(PID.TID 0000.0001) %MON exf_evap_mean                =   5.9260614020758E-08
(PID.TID 0000.0001) %MON exf_evap_sd                  =   4.2028636120571E-08
(PID.TID 0000.0001) %MON exf_evap_del2                =   2.8555064133005E-11
(PID.TID 0000.0001) %MON exf_precip_max               =   1.9141066233964E-06
(PID.TID 0000.0001) %MON exf_precip_min               =   0.0000000000000E+00
(PID.TID 0000.0001) %MON exf_precip_mean              =   4.0600578486200E-08
(PID.TID 0000.0001) %MON exf_precip_sd                =   1.3843006107081E-07
(PID.TID 0000.0001) %MON exf_precip_del2              =   5.8245473505235E-11
(PID.TID 0000.0001) %MON exf_swflux_max               =   0.0000000000000E+00
(PID.TID 0000.0001) %MON exf_swflux_min               =   0.0000000000000E+00
(PID.TID 0000.0001) %MON exf_swflux_mean              =   0.0000000000000E+00
(PID.TID 0000.0001) %MON exf_swflux_sd                =   0.0000000000000E+00
(PID.TID 0000.0001) %MON exf_swflux_del2              =   0.0000000000000E+00
(PID.TID 0000.0001) %MON exf_swdown_max               =   0.0000000000000E+00
(PID.TID 0000.0001) %MON exf_swdown_min               =   0.0000000000000E+00
(PID.TID 0000.0001) %MON exf_swdown_mean              =   0.0000000000000E+00
(PID.TID 0000.0001) %MON exf_swdown_sd                =   0.0000000000000E+00
(PID.TID 0000.0001) %MON exf_swdown_del2              =   0.0000000000000E+00
(PID.TID 0000.0001) %MON exf_lwdown_max               =   4.1828155240958E+02
(PID.TID 0000.0001) %MON exf_lwdown_min               =   2.2358340796167E+02
(PID.TID 0000.0001) %MON exf_lwdown_mean              =   3.4963689710756E+02
(PID.TID 0000.0001) %MON exf_lwdown_sd                =   3.1864235004662E+01
(PID.TID 0000.0001) %MON exf_lwdown_del2              =   1.3542076220153E-01
(PID.TID 0000.0001) %MON exf_apressure_max            =   1.0280269188821E+05
(PID.TID 0000.0001) %MON exf_apressure_min            =   1.0001241170265E+05
(PID.TID 0000.0001) %MON exf_apressure_mean           =   1.0216607453936E+05
(PID.TID 0000.0001) %MON exf_apressure_sd             =   4.9880298184990E+02
(PID.TID 0000.0001) %MON exf_apressure_del2           =   3.9520022984619E+01
(PID.TID 0000.0001) %MON exf_runoff_max               =   4.4374791284855E-08
(PID.TID 0000.0001) %MON exf_runoff_min               =   0.0000000000000E+00
(PID.TID 0000.0001) %MON exf_runoff_mean              =   1.5884794052194E-09
(PID.TID 0000.0001) %MON exf_runoff_sd                =   5.3901957917178E-09
(PID.TID 0000.0001) %MON exf_runoff_del2              =   2.2191214937507E-12
(PID.TID 0000.0001) // =======================================================
(PID.TID 0000.0001) // End MONITOR EXF statistics
(PID.TID 0000.0001) // =======================================================
 cg2d: Sum(rhs),rhsMax =   6.53271944982145E+02  1.42915503011994E-01
(PID.TID 0000.0001)      cg2d_init_res =   1.58003815420068E+00
(PID.TID 0000.0001)      cg2d_iters(min,last) =      -1     312
(PID.TID 0000.0001)      cg2d_last_res =   6.90424501434153E-12
(PID.TID 0000.0001) // =======================================================
(PID.TID 0000.0001) // Begin MONITOR dynamic field statistics
(PID.TID 0000.0001) // =======================================================
(PID.TID 0000.0001) %MON time_tsnumber                =                    10
(PID.TID 0000.0001) %MON time_secondsf                =   2.4000000000000E+03
(PID.TID 0000.0001) %MON dynstat_eta_max              =   1.3646458938362E+00
(PID.TID 0000.0001) %MON dynstat_eta_min              =  -9.3958012834034E-01
(PID.TID 0000.0001) %MON dynstat_eta_mean             =  -2.2215885075385E-02
(PID.TID 0000.0001) %MON dynstat_eta_sd               =   2.0960489676041E-01
(PID.TID 0000.0001) %MON dynstat_eta_del2             =   2.3618259126382E-06
(PID.TID 0000.0001) %MON dynstat_uvel_max             =   1.3141360105662E+00
(PID.TID 0000.0001) %MON dynstat_uvel_min             =  -7.0095168640527E-01
(PID.TID 0000.0001) %MON dynstat_uvel_mean            =   1.5103827757953E-03
(PID.TID 0000.0001) %MON dynstat_uvel_sd              =   5.2166319512991E-02
(PID.TID 0000.0001) %MON dynstat_uvel_del2            =   5.0657494257027E-07
(PID.TID 0000.0001) %MON dynstat_vvel_max             =   1.8754176863613E+00
(PID.TID 0000.0001) %MON dynstat_vvel_min             =  -9.1848431041941E-01
(PID.TID 0000.0001) %MON dynstat_vvel_mean            =  -8.8953642145002E-03
(PID.TID 0000.0001) %MON dynstat_vvel_sd              =   4.8278792269720E-02
(PID.TID 0000.0001) %MON dynstat_vvel_del2            =   4.7033173308517E-07
(PID.TID 0000.0001) %MON dynstat_wvel_max             =   3.4676574695822E-02
(PID.TID 0000.0001) %MON dynstat_wvel_min             =  -3.0279045191875E-02
(PID.TID 0000.0001) %MON dynstat_wvel_mean            =  -3.8840279688319E-06
(PID.TID 0000.0001) %MON dynstat_wvel_sd              =   5.9874639085009E-04
(PID.TID 0000.0001) %MON dynstat_wvel_del2            =   7.5089755504282E-08
(PID.TID 0000.0001) %MON dynstat_theta_max            =   2.6142204699810E+01
(PID.TID 0000.0001) %MON dynstat_theta_min            =   1.4688648492385E+00
(PID.TID 0000.0001) %MON dynstat_theta_mean           =   5.5098784303694E+00
(PID.TID 0000.0001) %MON dynstat_theta_sd             =   4.7734331235882E+00
(PID.TID 0000.0001) %MON dynstat_theta_del2           =   4.0032985515369E-06
(PID.TID 0000.0001) %MON dynstat_salt_max             =   3.9160113553978E+01
(PID.TID 0000.0001) %MON dynstat_salt_min             =   3.3096993981127E+01
(PID.TID 0000.0001) %MON dynstat_salt_mean            =   3.5173372722020E+01
(PID.TID 0000.0001) %MON dynstat_salt_sd              =   3.7892576838649E-01
(PID.TID 0000.0001) %MON dynstat_salt_del2            =   5.2088167212243E-07
(PID.TID 0000.0001) %MON forcing_qnet_max             =   1.1842476488086E+03
(PID.TID 0000.0001) %MON forcing_qnet_min             =  -2.9320248293518E+02
(PID.TID 0000.0001) %MON forcing_qnet_mean            =   2.4165070666320E+02
(PID.TID 0000.0001) %MON forcing_qnet_sd              =   1.4202625154312E+02
(PID.TID 0000.0001) %MON forcing_qnet_del2            =   1.6702483139022E-03
(PID.TID 0000.0001) %MON forcing_qsw_max              =   0.0000000000000E+00
(PID.TID 0000.0001) %MON forcing_qsw_min              =   0.0000000000000E+00
(PID.TID 0000.0001) %MON forcing_qsw_mean             =   0.0000000000000E+00
(PID.TID 0000.0001) %MON forcing_qsw_sd               =   0.0000000000000E+00
(PID.TID 0000.0001) %MON forcing_qsw_del2             =   0.0000000000000E+00
(PID.TID 0000.0001) %MON forcing_empmr_max            =   2.5651072449603E-04
(PID.TID 0000.0001) %MON forcing_empmr_min            =  -1.7372090946089E-03
(PID.TID 0000.0001) %MON forcing_empmr_mean           =   1.7071556129339E-05
(PID.TID 0000.0001) %MON forcing_empmr_sd             =   1.3329032780380E-04
(PID.TID 0000.0001) %MON forcing_empmr_del2           =   3.1669604274738E-09
(PID.TID 0000.0001) %MON forcing_fu_max               =   8.5403212619564E-01
(PID.TID 0000.0001) %MON forcing_fu_min               =  -4.0547969875116E-01
(PID.TID 0000.0001) %MON forcing_fu_mean              =   6.3398219352263E-02
(PID.TID 0000.0001) %MON forcing_fu_sd                =   1.5496510299620E-01
(PID.TID 0000.0001) %MON forcing_fu_del2              =   3.4360696931463E-07
(PID.TID 0000.0001) %MON forcing_fv_max               =   3.9139049744926E-01
(PID.TID 0000.0001) %MON forcing_fv_min               =  -5.6680366613913E-01
(PID.TID 0000.0001) %MON forcing_fv_mean              =   1.0928290164763E-02
(PID.TID 0000.0001) %MON forcing_fv_sd                =   1.0160975186991E-01
(PID.TID 0000.0001) %MON forcing_fv_del2              =   2.5288492792578E-07
(PID.TID 0000.0001) %MON trAdv_CFL_u_max              =   7.8329575712877E-02
(PID.TID 0000.0001) %MON trAdv_CFL_v_max              =   1.1899328481950E-01
(PID.TID 0000.0001) %MON trAdv_CFL_w_max              =   5.1116864145028E-01
(PID.TID 0000.0001) %MON advcfl_uvel_max              =   7.8329574646349E-02
(PID.TID 0000.0001) %MON advcfl_vvel_max              =   1.1902827345816E-01
(PID.TID 0000.0001) %MON advcfl_wvel_max              =   5.0720609384214E-01
(PID.TID 0000.0001) %MON advcfl_W_hf_max              =   5.1116864145028E-01
(PID.TID 0000.0001) %MON pe_b_mean                    =  -4.9044366192894E-04
(PID.TID 0000.0001) %MON ke_max                       =   1.7613265620550E+00
(PID.TID 0000.0001) %MON ke_mean                      =   2.5478847838726E-03
(PID.TID 0000.0001) %MON ke_vol                       =   4.5818637279721E+16
(PID.TID 0000.0001) %MON vort_r_min                   =  -5.6437283317443E-04
(PID.TID 0000.0001) %MON vort_r_max                   =   5.3363370982052E-04
(PID.TID 0000.0001) %MON vort_a_mean                  =   8.2147612144090E-05
(PID.TID 0000.0001) %MON vort_a_sd                    =   1.0140489964167E-05
(PID.TID 0000.0001) %MON vort_p_mean                  =   8.4848833093341E-05
(PID.TID 0000.0001) %MON vort_p_sd                    =   3.5004734101806E-05
(PID.TID 0000.0001) %MON surfExpan_theta_mean         =   3.1751384122713E-05
(PID.TID 0000.0001) %MON surfExpan_salt_mean          =  -1.4849045647644E-04
(PID.TID 0000.0001) // =======================================================
(PID.TID 0000.0001) // End MONITOR dynamic field statistics
(PID.TID 0000.0001) // =======================================================
(PID.TID 0000.0001) // =======================================================
(PID.TID 0000.0001) // Begin OBCS MONITOR field statistics
(PID.TID 0000.0001) // =======================================================
(PID.TID 0000.0001) %MON obc_N_vVel_max               =   6.7864133265752E-01
(PID.TID 0000.0001) %MON obc_N_vVel_min               =  -7.0584401228830E-01
(PID.TID 0000.0001) %MON obc_N_vVel_mean              =  -6.6908512193177E-03
(PID.TID 0000.0001) %MON obc_N_vVel_sd                =   6.2859739703163E-02
(PID.TID 0000.0001) %MON obc_N_vVel_Int               =  -9.5780100331700E+07
(PID.TID 0000.0001) %MON obc_S_vVel_max               =   1.5947407745410E+00
(PID.TID 0000.0001) %MON obc_S_vVel_min               =  -2.5368017957334E-01
(PID.TID 0000.0001) %MON obc_S_vVel_mean              =  -4.8043055890082E-03
(PID.TID 0000.0001) %MON obc_S_vVel_sd                =   3.6997650077421E-02
(PID.TID 0000.0001) %MON obc_S_vVel_Int               =  -1.4625699304423E+08
(PID.TID 0000.0001) %MON obc_N_theta_max              =   1.6389980023293E+01
(PID.TID 0000.0001) %MON obc_N_theta_min              =   1.8895912176394E+00
(PID.TID 0000.0001) %MON obc_N_theta_mean             =   5.1589066603884E+00
(PID.TID 0000.0001) %MON obc_N_theta_sd               =   3.4826410211044E+00
(PID.TID 0000.0001) %MON obc_S_theta_max              =   2.5543913821012E+01
(PID.TID 0000.0001) %MON obc_S_theta_min              =   1.4632996037592E+00
(PID.TID 0000.0001) %MON obc_S_theta_mean             =   5.4595497299657E+00
(PID.TID 0000.0001) %MON obc_S_theta_sd               =   5.3558983237118E+00
(PID.TID 0000.0001) %MON obc_N_salt_max               =   3.5910863564326E+01
(PID.TID 0000.0001) %MON obc_N_salt_min               =   3.3295069096378E+01
(PID.TID 0000.0001) %MON obc_N_salt_mean              =   3.5114561356483E+01
(PID.TID 0000.0001) %MON obc_N_salt_sd                =   3.0984813632874E-01
(PID.TID 0000.0001) %MON obc_S_salt_max               =   3.7318277786781E+01
(PID.TID 0000.0001) %MON obc_S_salt_min               =   3.4844694836021E+01
(PID.TID 0000.0001) %MON obc_S_salt_mean              =   3.5168372219668E+01
(PID.TID 0000.0001) %MON obc_S_salt_sd                =   4.5716759712294E-01
(PID.TID 0000.0001) // =======================================================
(PID.TID 0000.0001) // End OBCS MONITOR field statistics
(PID.TID 0000.0001) // =======================================================
(PID.TID 0000.0001) // =======================================================
(PID.TID 0000.0001) // Begin MONITOR EXF statistics
(PID.TID 0000.0001) // =======================================================
(PID.TID 0000.0001) %MON exf_tsnumber                 =                    10
(PID.TID 0000.0001) %MON exf_time_sec                 =   2.4000000000000E+03
(PID.TID 0000.0001) %MON exf_ustress_max              =   8.6563465082557E-01
(PID.TID 0000.0001) %MON exf_ustress_min              =  -4.0307513208605E-01
(PID.TID 0000.0001) %MON exf_ustress_mean             =   6.3491186096085E-02
(PID.TID 0000.0001) %MON exf_ustress_sd               =   1.5502440830550E-01
(PID.TID 0000.0001) %MON exf_ustress_del2             =   3.9132152887968E-07
(PID.TID 0000.0001) %MON exf_vstress_max              =   3.9365055919496E-01
(PID.TID 0000.0001) %MON exf_vstress_min              =  -5.6382223104051E-01
(PID.TID 0000.0001) %MON exf_vstress_mean             =   1.1013930431865E-02
(PID.TID 0000.0001) %MON exf_vstress_sd               =   1.0160625815983E-01
(PID.TID 0000.0001) %MON exf_vstress_del2             =   2.8261052907227E-07
(PID.TID 0000.0001) %MON exf_hflux_max                =   1.1729592063106E+03
(PID.TID 0000.0001) %MON exf_hflux_min                =  -2.9099271234664E+02
(PID.TID 0000.0001) %MON exf_hflux_mean               =   2.3954827174266E+02
(PID.TID 0000.0001) %MON exf_hflux_sd                 =   1.4042676637823E+02
(PID.TID 0000.0001) %MON exf_hflux_del2               =   1.0902604990629E-01
(PID.TID 0000.0001) %MON exf_sflux_max                =   2.5720790426601E-07
(PID.TID 0000.0001) %MON exf_sflux_min                =  -1.7560214431317E-06
(PID.TID 0000.0001) %MON exf_sflux_mean               =   1.6831195592844E-08
(PID.TID 0000.0001) %MON exf_sflux_sd                 =   1.3267960507561E-07
(PID.TID 0000.0001) %MON exf_sflux_del2               =   5.3188078559325E-11
(PID.TID 0000.0001) %MON exf_uwind_max                =   1.9833009839507E+01
(PID.TID 0000.0001) %MON exf_uwind_min                =  -1.4845758573750E+01
(PID.TID 0000.0001) %MON exf_uwind_mean               =   2.4819016646934E+00
(PID.TID 0000.0001) %MON exf_uwind_sd                 =   6.6669269287853E+00
(PID.TID 0000.0001) %MON exf_uwind_del2               =   2.8391071392248E-03
(PID.TID 0000.0001) %MON exf_vwind_max                =   1.4463499777291E+01
(PID.TID 0000.0001) %MON exf_vwind_min                =  -1.2781661224900E+01
(PID.TID 0000.0001) %MON exf_vwind_mean               =   8.6792854115133E-01
(PID.TID 0000.0001) %MON exf_vwind_sd                 =   5.1770090761491E+00
(PID.TID 0000.0001) %MON exf_vwind_del2               =   2.0878320063891E-03
(PID.TID 0000.0001) %MON exf_wspeed_max               =   2.0260550426609E+01
(PID.TID 0000.0001) %MON exf_wspeed_min               =   1.0544064945002E-02
(PID.TID 0000.0001) %MON exf_wspeed_mean              =   7.7113611538852E+00
(PID.TID 0000.0001) %MON exf_wspeed_sd                =   4.3240470196790E+00
(PID.TID 0000.0001) %MON exf_wspeed_del2              =   3.5238493869891E-03
(PID.TID 0000.0001) %MON exf_atemp_max                =   2.9815585128109E+02
(PID.TID 0000.0001) %MON exf_atemp_min                =   2.7429574658923E+02
(PID.TID 0000.0001) %MON exf_atemp_mean               =   2.9067093473153E+02
(PID.TID 0000.0001) %MON exf_atemp_sd                 =   3.9450556500922E+00
(PID.TID 0000.0001) %MON exf_atemp_del2               =   6.8374852327902E-03
(PID.TID 0000.0001) %MON exf_aqh_max                  =   1.6752612524593E-02
(PID.TID 0000.0001) %MON exf_aqh_min                  =   2.7171159548406E-03
(PID.TID 0000.0001) %MON exf_aqh_mean                 =   9.4168909734027E-03
(PID.TID 0000.0001) %MON exf_aqh_sd                   =   2.8751456814907E-03
(PID.TID 0000.0001) %MON exf_aqh_del2                 =   3.7484551964519E-06
(PID.TID 0000.0001) %MON exf_lwflux_max               =   1.5340377300618E+02
(PID.TID 0000.0001) %MON exf_lwflux_min               =  -3.1012593106610E+00
(PID.TID 0000.0001) %MON exf_lwflux_mean              =   6.5383550729736E+01
(PID.TID 0000.0001) %MON exf_lwflux_sd                =   2.6621861733651E+01
(PID.TID 0000.0001) %MON exf_lwflux_del2              =   2.7098370545312E-02
(PID.TID 0000.0001) %MON exf_evap_max                 =   2.8321172451565E-07
(PID.TID 0000.0001) %MON exf_evap_min                 =  -9.7141080529727E-08
(PID.TID 0000.0001) %MON exf_evap_mean                =   5.9263388756491E-08
(PID.TID 0000.0001) %MON exf_evap_sd                  =   4.2042588713555E-08
(PID.TID 0000.0001) %MON exf_evap_del2                =   2.8564483953781E-11
(PID.TID 0000.0001) %MON exf_precip_max               =   1.9335571503569E-06
(PID.TID 0000.0001) %MON exf_precip_min               =   0.0000000000000E+00
(PID.TID 0000.0001) %MON exf_precip_mean              =   4.0843713758428E-08
(PID.TID 0000.0001) %MON exf_precip_sd                =   1.3798293944741E-07
(PID.TID 0000.0001) %MON exf_precip_del2              =   5.7975422738598E-11
(PID.TID 0000.0001) %MON exf_swflux_max               =   0.0000000000000E+00
(PID.TID 0000.0001) %MON exf_swflux_min               =   0.0000000000000E+00
(PID.TID 0000.0001) %MON exf_swflux_mean              =   0.0000000000000E+00
(PID.TID 0000.0001) %MON exf_swflux_sd                =   0.0000000000000E+00
(PID.TID 0000.0001) %MON exf_swflux_del2              =   0.0000000000000E+00
(PID.TID 0000.0001) %MON exf_swdown_max               =   0.0000000000000E+00
(PID.TID 0000.0001) %MON exf_swdown_min               =   0.0000000000000E+00
(PID.TID 0000.0001) %MON exf_swdown_mean              =   0.0000000000000E+00
(PID.TID 0000.0001) %MON exf_swdown_sd                =   0.0000000000000E+00
(PID.TID 0000.0001) %MON exf_swdown_del2              =   0.0000000000000E+00
(PID.TID 0000.0001) %MON exf_lwdown_max               =   4.1831267501885E+02
(PID.TID 0000.0001) %MON exf_lwdown_min               =   2.2402298936111E+02
(PID.TID 0000.0001) %MON exf_lwdown_mean              =   3.4965138826056E+02
(PID.TID 0000.0001) %MON exf_lwdown_sd                =   3.1755013557864E+01
(PID.TID 0000.0001) %MON exf_lwdown_del2              =   1.3542357561132E-01
(PID.TID 0000.0001) %MON exf_apressure_max            =   1.0280576881181E+05
(PID.TID 0000.0001) %MON exf_apressure_min            =   1.0001483343524E+05
(PID.TID 0000.0001) %MON exf_apressure_mean           =   1.0216685184592E+05
(PID.TID 0000.0001) %MON exf_apressure_sd             =   4.9875939305256E+02
(PID.TID 0000.0001) %MON exf_apressure_del2           =   3.9520330557201E+01
(PID.TID 0000.0001) %MON exf_runoff_max               =   4.4374791284855E-08
(PID.TID 0000.0001) %MON exf_runoff_min               =   0.0000000000000E+00
(PID.TID 0000.0001) %MON exf_runoff_mean              =   1.5884794052194E-09
(PID.TID 0000.0001) %MON exf_runoff_sd                =   5.3901957917178E-09
(PID.TID 0000.0001) %MON exf_runoff_del2              =   2.2191214937507E-12
(PID.TID 0000.0001) // =======================================================
(PID.TID 0000.0001) // End MONITOR EXF statistics
(PID.TID 0000.0001) // =======================================================
 cg2d: Sum(rhs),rhsMax =   6.77043093358058E+02  1.15044675651853E-01
(PID.TID 0000.0001)      cg2d_init_res =   1.55941648280258E+00
(PID.TID 0000.0001)      cg2d_iters(min,last) =      -1     309
(PID.TID 0000.0001)      cg2d_last_res =   6.88370417078750E-12
(PID.TID 0000.0001) // =======================================================
(PID.TID 0000.0001) // Begin MONITOR dynamic field statistics
(PID.TID 0000.0001) // =======================================================
(PID.TID 0000.0001) %MON time_tsnumber                =                    11
(PID.TID 0000.0001) %MON time_secondsf                =   2.6400000000000E+03
(PID.TID 0000.0001) %MON dynstat_eta_max              =   1.3369778787940E+00
(PID.TID 0000.0001) %MON dynstat_eta_min              =  -9.5866419066103E-01
(PID.TID 0000.0001) %MON dynstat_eta_mean             =  -2.3024272921343E-02
(PID.TID 0000.0001) %MON dynstat_eta_sd               =   2.1584945445682E-01
(PID.TID 0000.0001) %MON dynstat_eta_del2             =   2.3086530719063E-06
(PID.TID 0000.0001) %MON dynstat_uvel_max             =   1.2905734083294E+00
(PID.TID 0000.0001) %MON dynstat_uvel_min             =  -7.0063630304024E-01
(PID.TID 0000.0001) %MON dynstat_uvel_mean            =   1.1216847164621E-03
(PID.TID 0000.0001) %MON dynstat_uvel_sd              =   5.2128113081272E-02
(PID.TID 0000.0001) %MON dynstat_uvel_del2            =   5.1484010203870E-07
(PID.TID 0000.0001) %MON dynstat_vvel_max             =   1.8762052488756E+00
(PID.TID 0000.0001) %MON dynstat_vvel_min             =  -9.1888472660922E-01
(PID.TID 0000.0001) %MON dynstat_vvel_mean            =  -9.4446181253452E-03
(PID.TID 0000.0001) %MON dynstat_vvel_sd              =   4.8338106197732E-02
(PID.TID 0000.0001) %MON dynstat_vvel_del2            =   4.7806372148799E-07
(PID.TID 0000.0001) %MON dynstat_wvel_max             =   3.4483818790237E-02
(PID.TID 0000.0001) %MON dynstat_wvel_min             =  -3.1252158546896E-02
(PID.TID 0000.0001) %MON dynstat_wvel_mean            =  -3.2151693298756E-06
(PID.TID 0000.0001) %MON dynstat_wvel_sd              =   6.0267917655916E-04
(PID.TID 0000.0001) %MON dynstat_wvel_del2            =   7.3908080637262E-08
(PID.TID 0000.0001) %MON dynstat_theta_max            =   2.6144042065135E+01
(PID.TID 0000.0001) %MON dynstat_theta_min            =   1.4688649056461E+00
(PID.TID 0000.0001) %MON dynstat_theta_mean           =   5.5098699241075E+00
(PID.TID 0000.0001) %MON dynstat_theta_sd             =   4.7734044781760E+00
(PID.TID 0000.0001) %MON dynstat_theta_del2           =   4.0060118036935E-06
(PID.TID 0000.0001) %MON dynstat_salt_max             =   3.9156237704810E+01
(PID.TID 0000.0001) %MON dynstat_salt_min             =   3.3097990313285E+01
(PID.TID 0000.0001) %MON dynstat_salt_mean            =   3.5173372032782E+01
(PID.TID 0000.0001) %MON dynstat_salt_sd              =   3.7892488746843E-01
(PID.TID 0000.0001) %MON dynstat_salt_del2            =   5.2408154529501E-07
(PID.TID 0000.0001) %MON forcing_qnet_max             =   1.1909829064048E+03
(PID.TID 0000.0001) %MON forcing_qnet_min             =  -2.9583495664704E+02
(PID.TID 0000.0001) %MON forcing_qnet_mean            =   2.4164718781486E+02
(PID.TID 0000.0001) %MON forcing_qnet_sd              =   1.4213133656669E+02
(PID.TID 0000.0001) %MON forcing_qnet_del2            =   1.6745286126745E-03
(PID.TID 0000.0001) %MON forcing_qsw_max              =   0.0000000000000E+00
(PID.TID 0000.0001) %MON forcing_qsw_min              =   0.0000000000000E+00
(PID.TID 0000.0001) %MON forcing_qsw_mean             =   0.0000000000000E+00
(PID.TID 0000.0001) %MON forcing_qsw_sd               =   0.0000000000000E+00
(PID.TID 0000.0001) %MON forcing_qsw_del2             =   0.0000000000000E+00
(PID.TID 0000.0001) %MON forcing_empmr_max            =   2.5720790426601E-04
(PID.TID 0000.0001) %MON forcing_empmr_min            =  -1.7560214431317E-03
(PID.TID 0000.0001) %MON forcing_empmr_mean           =   1.6831195592844E-05
(PID.TID 0000.0001) %MON forcing_empmr_sd             =   1.3267960507561E-04
(PID.TID 0000.0001) %MON forcing_empmr_del2           =   2.9976061282467E-09
(PID.TID 0000.0001) %MON forcing_fu_max               =   8.6553598724233E-01
(PID.TID 0000.0001) %MON forcing_fu_min               =  -4.0300093322784E-01
(PID.TID 0000.0001) %MON forcing_fu_mean              =   6.3551473227406E-02
(PID.TID 0000.0001) %MON forcing_fu_sd                =   1.5508469235460E-01
(PID.TID 0000.0001) %MON forcing_fu_del2              =   3.5167294497047E-07
(PID.TID 0000.0001) %MON forcing_fv_max               =   3.9351926126925E-01
(PID.TID 0000.0001) %MON forcing_fv_min               =  -5.6801424580853E-01
(PID.TID 0000.0001) %MON forcing_fv_mean              =   1.0996549194096E-02
(PID.TID 0000.0001) %MON forcing_fv_sd                =   1.0173805377025E-01
(PID.TID 0000.0001) %MON forcing_fv_del2              =   2.6199568598544E-07
(PID.TID 0000.0001) %MON trAdv_CFL_u_max              =   7.7969621431649E-02
(PID.TID 0000.0001) %MON trAdv_CFL_v_max              =   1.1904325483485E-01
(PID.TID 0000.0001) %MON trAdv_CFL_w_max              =   5.1062069658040E-01
(PID.TID 0000.0001) %MON advcfl_uvel_max              =   7.7969620370023E-02
(PID.TID 0000.0001) %MON advcfl_vvel_max              =   1.1907825816664E-01
(PID.TID 0000.0001) %MON advcfl_wvel_max              =   5.0211035163739E-01
(PID.TID 0000.0001) %MON advcfl_W_hf_max              =   5.1062069658040E-01
(PID.TID 0000.0001) %MON pe_b_mean                    =  -5.0663788526820E-04
(PID.TID 0000.0001) %MON ke_max                       =   1.7629295833564E+00
(PID.TID 0000.0001) %MON ke_mean                      =   2.5532606165777E-03
(PID.TID 0000.0001) %MON ke_vol                       =   4.5818637279721E+16
(PID.TID 0000.0001) %MON vort_r_min                   =  -5.6662339626972E-04
(PID.TID 0000.0001) %MON vort_r_max                   =   5.4087603865596E-04
(PID.TID 0000.0001) %MON vort_a_mean                  =   8.2147612390023E-05
(PID.TID 0000.0001) %MON vort_a_sd                    =   1.0143771649748E-05
(PID.TID 0000.0001) %MON vort_p_mean                  =   8.4848833347361E-05
(PID.TID 0000.0001) %MON vort_p_sd                    =   3.5009783217365E-05
(PID.TID 0000.0001) %MON surfExpan_theta_mean         =   6.0397087906637E-05
(PID.TID 0000.0001) %MON surfExpan_salt_mean          =  -1.0898786679875E-04
(PID.TID 0000.0001) // =======================================================
(PID.TID 0000.0001) // End MONITOR dynamic field statistics
(PID.TID 0000.0001) // =======================================================
(PID.TID 0000.0001) // =======================================================
(PID.TID 0000.0001) // Begin OBCS MONITOR field statistics
(PID.TID 0000.0001) // =======================================================
(PID.TID 0000.0001) %MON obc_N_vVel_max               =   6.7853298193553E-01
(PID.TID 0000.0001) %MON obc_N_vVel_min               =  -7.0393434014030E-01
(PID.TID 0000.0001) %MON obc_N_vVel_mean              =  -6.7714113355173E-03
(PID.TID 0000.0001) %MON obc_N_vVel_sd                =   6.2859034845549E-02
(PID.TID 0000.0001) %MON obc_N_vVel_Int               =  -9.6933325199420E+07
(PID.TID 0000.0001) %MON obc_S_vVel_max               =   1.5955490597145E+00
(PID.TID 0000.0001) %MON obc_S_vVel_min               =  -2.5362594761293E-01
(PID.TID 0000.0001) %MON obc_S_vVel_mean              =  -4.4345267130659E-03
(PID.TID 0000.0001) %MON obc_S_vVel_sd                =   3.6994409096333E-02
(PID.TID 0000.0001) %MON obc_S_vVel_Int               =  -1.3499985182276E+08
(PID.TID 0000.0001) %MON obc_N_theta_max              =   1.6389891921106E+01
(PID.TID 0000.0001) %MON obc_N_theta_min              =   1.8895912667048E+00
(PID.TID 0000.0001) %MON obc_N_theta_mean             =   5.1588992762384E+00
(PID.TID 0000.0001) %MON obc_N_theta_sd               =   3.4826317304761E+00
(PID.TID 0000.0001) %MON obc_S_theta_max              =   2.5543811072233E+01
(PID.TID 0000.0001) %MON obc_S_theta_min              =   1.4633000000465E+00
(PID.TID 0000.0001) %MON obc_S_theta_mean             =   5.4595489249411E+00
(PID.TID 0000.0001) %MON obc_S_theta_sd               =   5.3558944527081E+00
(PID.TID 0000.0001) %MON obc_N_salt_max               =   3.5910863155963E+01
(PID.TID 0000.0001) %MON obc_N_salt_min               =   3.3295074599012E+01
(PID.TID 0000.0001) %MON obc_N_salt_mean              =   3.5114561060497E+01
(PID.TID 0000.0001) %MON obc_N_salt_sd                =   3.0984801720924E-01
(PID.TID 0000.0001) %MON obc_S_salt_max               =   3.7318270902396E+01
(PID.TID 0000.0001) %MON obc_S_salt_min               =   3.4844694888241E+01
(PID.TID 0000.0001) %MON obc_S_salt_mean              =   3.5168372147752E+01
(PID.TID 0000.0001) %MON obc_S_salt_sd                =   4.5716724609566E-01
(PID.TID 0000.0001) // =======================================================
(PID.TID 0000.0001) // End OBCS MONITOR field statistics
(PID.TID 0000.0001) // =======================================================
(PID.TID 0000.0001) // =======================================================
(PID.TID 0000.0001) // Begin MONITOR EXF statistics
(PID.TID 0000.0001) // =======================================================
(PID.TID 0000.0001) %MON exf_tsnumber                 =                    11
(PID.TID 0000.0001) %MON exf_time_sec                 =   2.6400000000000E+03
(PID.TID 0000.0001) %MON exf_ustress_max              =   8.7793116050850E-01
(PID.TID 0000.0001) %MON exf_ustress_min              =  -4.0062626256277E-01
(PID.TID 0000.0001) %MON exf_ustress_mean             =   6.3668608311367E-02
(PID.TID 0000.0001) %MON exf_ustress_sd               =   1.5521673928058E-01
(PID.TID 0000.0001) %MON exf_ustress_del2             =   4.0120778189435E-07
(PID.TID 0000.0001) %MON exf_vstress_max              =   3.9659594908495E-01
(PID.TID 0000.0001) %MON exf_vstress_min              =  -5.6505829825195E-01
(PID.TID 0000.0001) %MON exf_vstress_mean             =   1.1085367569801E-02
(PID.TID 0000.0001) %MON exf_vstress_sd               =   1.0179830134454E-01
(PID.TID 0000.0001) %MON exf_vstress_del2             =   2.9478320525389E-07
(PID.TID 0000.0001) %MON exf_hflux_max                =   1.1797013090958E+03
(PID.TID 0000.0001) %MON exf_hflux_min                =  -2.9365480612393E+02
(PID.TID 0000.0001) %MON exf_hflux_mean               =   2.3958474266231E+02
(PID.TID 0000.0001) %MON exf_hflux_sd                 =   1.4059277146276E+02
(PID.TID 0000.0001) %MON exf_hflux_del2               =   1.0909003555493E-01
(PID.TID 0000.0001) %MON exf_sflux_max                =   2.5793347619881E-07
(PID.TID 0000.0001) %MON exf_sflux_min                =  -1.7748317096299E-06
(PID.TID 0000.0001) %MON exf_sflux_mean               =   1.6598308990375E-08
(PID.TID 0000.0001) %MON exf_sflux_sd                 =   1.3237543233700E-07
(PID.TID 0000.0001) %MON exf_sflux_del2               =   5.2931541330765E-11
(PID.TID 0000.0001) %MON exf_uwind_max                =   1.9943631416086E+01
(PID.TID 0000.0001) %MON exf_uwind_min                =  -1.4821240766812E+01
(PID.TID 0000.0001) %MON exf_uwind_mean               =   2.4839899244365E+00
(PID.TID 0000.0001) %MON exf_uwind_sd                 =   6.6680236738572E+00
(PID.TID 0000.0001) %MON exf_uwind_del2               =   2.8397969925769E-03
(PID.TID 0000.0001) %MON exf_vwind_max                =   1.4520461406051E+01
(PID.TID 0000.0001) %MON exf_vwind_min                =  -1.2796206162419E+01
(PID.TID 0000.0001) %MON exf_vwind_mean               =   8.7003231683363E-01
(PID.TID 0000.0001) %MON exf_vwind_sd                 =   5.1790606105658E+00
(PID.TID 0000.0001) %MON exf_vwind_del2               =   2.0891132547214E-03
(PID.TID 0000.0001) %MON exf_wspeed_max               =   2.0249442553212E+01
(PID.TID 0000.0001) %MON exf_wspeed_min               =   3.7303414907194E-03
(PID.TID 0000.0001) %MON exf_wspeed_mean              =   7.7125243647439E+00
(PID.TID 0000.0001) %MON exf_wspeed_sd                =   4.3277405910362E+00
(PID.TID 0000.0001) %MON exf_wspeed_del2              =   3.5251545265989E-03
(PID.TID 0000.0001) %MON exf_atemp_max                =   2.9815365399267E+02
(PID.TID 0000.0001) %MON exf_atemp_min                =   2.7427014538059E+02
(PID.TID 0000.0001) %MON exf_atemp_mean               =   2.9066781352534E+02
(PID.TID 0000.0001) %MON exf_atemp_sd                 =   3.9458015647656E+00
(PID.TID 0000.0001) %MON exf_atemp_del2               =   6.8363292356366E-03
(PID.TID 0000.0001) %MON exf_aqh_max                  =   1.6745626223720E-02
(PID.TID 0000.0001) %MON exf_aqh_min                  =   2.7148212570767E-03
(PID.TID 0000.0001) %MON exf_aqh_mean                 =   9.4157028205886E-03
(PID.TID 0000.0001) %MON exf_aqh_sd                   =   2.8761932334855E-03
(PID.TID 0000.0001) %MON exf_aqh_del2                 =   3.7480524478943E-06
(PID.TID 0000.0001) %MON exf_lwflux_max               =   1.5367536608929E+02
(PID.TID 0000.0001) %MON exf_lwflux_min               =  -1.6583456572321E+00
(PID.TID 0000.0001) %MON exf_lwflux_mean              =   6.5365502615764E+01
(PID.TID 0000.0001) %MON exf_lwflux_sd                =   2.6559398188053E+01
(PID.TID 0000.0001) %MON exf_lwflux_del2              =   2.7080178441243E-02
(PID.TID 0000.0001) %MON exf_evap_max                 =   2.8508212058497E-07
(PID.TID 0000.0001) %MON exf_evap_min                 =  -9.7999931131709E-08
(PID.TID 0000.0001) %MON exf_evap_mean                =   5.9273637426250E-08
(PID.TID 0000.0001) %MON exf_evap_sd                  =   4.2068196015947E-08
(PID.TID 0000.0001) %MON exf_evap_del2                =   2.8579102856119E-11
(PID.TID 0000.0001) %MON exf_precip_max               =   1.9530076773174E-06
(PID.TID 0000.0001) %MON exf_precip_min               =   0.0000000000000E+00
(PID.TID 0000.0001) %MON exf_precip_mean              =   4.1086849030656E-08
(PID.TID 0000.0001) %MON exf_precip_sd                =   1.3784055398265E-07
(PID.TID 0000.0001) %MON exf_precip_del2              =   5.7829315018580E-11
(PID.TID 0000.0001) %MON exf_swflux_max               =   0.0000000000000E+00
(PID.TID 0000.0001) %MON exf_swflux_min               =   0.0000000000000E+00
(PID.TID 0000.0001) %MON exf_swflux_mean              =   0.0000000000000E+00
(PID.TID 0000.0001) %MON exf_swflux_sd                =   0.0000000000000E+00
(PID.TID 0000.0001) %MON exf_swflux_del2              =   0.0000000000000E+00
(PID.TID 0000.0001) %MON exf_swdown_max               =   0.0000000000000E+00
(PID.TID 0000.0001) %MON exf_swdown_min               =   0.0000000000000E+00
(PID.TID 0000.0001) %MON exf_swdown_mean              =   0.0000000000000E+00
(PID.TID 0000.0001) %MON exf_swdown_sd                =   0.0000000000000E+00
(PID.TID 0000.0001) %MON exf_swdown_del2              =   0.0000000000000E+00
(PID.TID 0000.0001) %MON exf_lwdown_max               =   4.1834379762812E+02
(PID.TID 0000.0001) %MON exf_lwdown_min               =   2.2446257076056E+02
(PID.TID 0000.0001) %MON exf_lwdown_mean              =   3.4966587941356E+02
(PID.TID 0000.0001) %MON exf_lwdown_sd                =   3.1662579062329E+01
(PID.TID 0000.0001) %MON exf_lwdown_del2              =   1.3542704062714E-01
(PID.TID 0000.0001) %MON exf_apressure_max            =   1.0280887953443E+05
(PID.TID 0000.0001) %MON exf_apressure_min            =   1.0001557376642E+05
(PID.TID 0000.0001) %MON exf_apressure_mean           =   1.0216762915247E+05
(PID.TID 0000.0001) %MON exf_apressure_sd             =   4.9875562730687E+02
(PID.TID 0000.0001) %MON exf_apressure_del2           =   3.9520638211190E+01
(PID.TID 0000.0001) %MON exf_runoff_max               =   4.4374791284855E-08
(PID.TID 0000.0001) %MON exf_runoff_min               =   0.0000000000000E+00
(PID.TID 0000.0001) %MON exf_runoff_mean              =   1.5884794052194E-09
(PID.TID 0000.0001) %MON exf_runoff_sd                =   5.3901957917178E-09
(PID.TID 0000.0001) %MON exf_runoff_del2              =   2.2191214937507E-12
(PID.TID 0000.0001) // =======================================================
(PID.TID 0000.0001) // End MONITOR EXF statistics
(PID.TID 0000.0001) // =======================================================
 cg2d: Sum(rhs),rhsMax =   6.93026123966658E+02  1.15451319071631E-01
(PID.TID 0000.0001)      cg2d_init_res =   1.47961760020679E+00
(PID.TID 0000.0001)      cg2d_iters(min,last) =      -1     308
(PID.TID 0000.0001)      cg2d_last_res =   6.60946556447203E-12
(PID.TID 0000.0001) // =======================================================
(PID.TID 0000.0001) // Begin MONITOR dynamic field statistics
(PID.TID 0000.0001) // =======================================================
(PID.TID 0000.0001) %MON time_tsnumber                =                    12
(PID.TID 0000.0001) %MON time_secondsf                =   2.8800000000000E+03
(PID.TID 0000.0001) %MON dynstat_eta_max              =   1.2321181969680E+00
(PID.TID 0000.0001) %MON dynstat_eta_min              =  -9.7926963391530E-01
(PID.TID 0000.0001) %MON dynstat_eta_mean             =  -2.3567809459051E-02
(PID.TID 0000.0001) %MON dynstat_eta_sd               =   2.2121845514121E-01
(PID.TID 0000.0001) %MON dynstat_eta_del2             =   2.2764653573143E-06
(PID.TID 0000.0001) %MON dynstat_uvel_max             =   1.3222857290835E+00
(PID.TID 0000.0001) %MON dynstat_uvel_min             =  -7.0054437262029E-01
(PID.TID 0000.0001) %MON dynstat_uvel_mean            =   7.2396680722603E-04
(PID.TID 0000.0001) %MON dynstat_uvel_sd              =   5.2098178294846E-02
(PID.TID 0000.0001) %MON dynstat_uvel_del2            =   5.2254106473218E-07
(PID.TID 0000.0001) %MON dynstat_vvel_max             =   1.8761560976183E+00
(PID.TID 0000.0001) %MON dynstat_vvel_min             =  -9.1860315386482E-01
(PID.TID 0000.0001) %MON dynstat_vvel_mean            =  -9.9283519119469E-03
(PID.TID 0000.0001) %MON dynstat_vvel_sd              =   4.8393281451641E-02
(PID.TID 0000.0001) %MON dynstat_vvel_del2            =   4.8541150698086E-07
(PID.TID 0000.0001) %MON dynstat_wvel_max             =   3.5814890109227E-02
(PID.TID 0000.0001) %MON dynstat_wvel_min             =  -3.1971055863464E-02
(PID.TID 0000.0001) %MON dynstat_wvel_mean            =  -2.5416075531317E-06
(PID.TID 0000.0001) %MON dynstat_wvel_sd              =   6.0609246136915E-04
(PID.TID 0000.0001) %MON dynstat_wvel_del2            =   7.2271954196206E-08
(PID.TID 0000.0001) %MON dynstat_theta_max            =   2.6145821456275E+01
(PID.TID 0000.0001) %MON dynstat_theta_min            =   1.4688649516490E+00
(PID.TID 0000.0001) %MON dynstat_theta_mean           =   5.5098600491496E+00
(PID.TID 0000.0001) %MON dynstat_theta_sd             =   4.7733729373600E+00
(PID.TID 0000.0001) %MON dynstat_theta_del2           =   4.0082925717693E-06
(PID.TID 0000.0001) %MON dynstat_salt_max             =   3.9152189510289E+01
(PID.TID 0000.0001) %MON dynstat_salt_min             =   3.3099025783220E+01
(PID.TID 0000.0001) %MON dynstat_salt_mean            =   3.5173371286557E+01
(PID.TID 0000.0001) %MON dynstat_salt_sd              =   3.7892381316000E-01
(PID.TID 0000.0001) %MON dynstat_salt_del2            =   5.2693569179195E-07
(PID.TID 0000.0001) %MON forcing_qnet_max             =   1.1978568025147E+03
(PID.TID 0000.0001) %MON forcing_qnet_min             =  -2.9853359471261E+02
(PID.TID 0000.0001) %MON forcing_qnet_mean            =   2.4166822294209E+02
(PID.TID 0000.0001) %MON forcing_qnet_sd              =   1.4227518703239E+02
(PID.TID 0000.0001) %MON forcing_qnet_del2            =   1.6750294769310E-03
(PID.TID 0000.0001) %MON forcing_qsw_max              =   0.0000000000000E+00
(PID.TID 0000.0001) %MON forcing_qsw_min              =   0.0000000000000E+00
(PID.TID 0000.0001) %MON forcing_qsw_mean             =   0.0000000000000E+00
(PID.TID 0000.0001) %MON forcing_qsw_sd               =   0.0000000000000E+00
(PID.TID 0000.0001) %MON forcing_qsw_del2             =   0.0000000000000E+00
(PID.TID 0000.0001) %MON forcing_empmr_max            =   2.5793347619881E-04
(PID.TID 0000.0001) %MON forcing_empmr_min            =  -1.7748317096299E-03
(PID.TID 0000.0001) %MON forcing_empmr_mean           =   1.6598308990375E-05
(PID.TID 0000.0001) %MON forcing_empmr_sd             =   1.3237543233700E-04
(PID.TID 0000.0001) %MON forcing_empmr_del2           =   2.8537022026767E-09
(PID.TID 0000.0001) %MON forcing_fu_max               =   8.7759911159769E-01
(PID.TID 0000.0001) %MON forcing_fu_min               =  -4.0062249759656E-01
(PID.TID 0000.0001) %MON forcing_fu_mean              =   6.3729423971958E-02
(PID.TID 0000.0001) %MON forcing_fu_sd                =   1.5527716564929E-01
(PID.TID 0000.0001) %MON forcing_fu_del2              =   3.6217379313260E-07
(PID.TID 0000.0001) %MON forcing_fv_max               =   3.9654048461147E-01
(PID.TID 0000.0001) %MON forcing_fv_min               =  -5.6950747454229E-01
(PID.TID 0000.0001) %MON forcing_fv_mean              =   1.1068318224649E-02
(PID.TID 0000.0001) %MON forcing_fv_sd                =   1.0193024174876E-01
(PID.TID 0000.0001) %MON forcing_fv_del2              =   2.7387568789214E-07
(PID.TID 0000.0001) %MON trAdv_CFL_u_max              =   7.7564758692636E-02
(PID.TID 0000.0001) %MON trAdv_CFL_v_max              =   1.1901237938595E-01
(PID.TID 0000.0001) %MON trAdv_CFL_w_max              =   5.2035639963530E-01
(PID.TID 0000.0001) %MON advcfl_uvel_max              =   7.7564757636522E-02
(PID.TID 0000.0001) %MON advcfl_vvel_max              =   1.1904737363916E-01
(PID.TID 0000.0001) %MON advcfl_wvel_max              =   5.1168379297471E-01
(PID.TID 0000.0001) %MON advcfl_W_hf_max              =   5.2035639963530E-01
(PID.TID 0000.0001) %MON pe_b_mean                    =  -5.1665954887139E-04
(PID.TID 0000.0001) %MON ke_max                       =   1.7626373253495E+00
(PID.TID 0000.0001) %MON ke_mean                      =   2.5586641879067E-03
(PID.TID 0000.0001) %MON ke_vol                       =   4.5818637279721E+16
(PID.TID 0000.0001) %MON vort_r_min                   =  -5.6785959864046E-04
(PID.TID 0000.0001) %MON vort_r_max                   =   5.4749121626421E-04
(PID.TID 0000.0001) %MON vort_a_mean                  =   8.2147612649694E-05
(PID.TID 0000.0001) %MON vort_a_sd                    =   1.0147076662037E-05
(PID.TID 0000.0001) %MON vort_p_mean                  =   8.4848833615571E-05
(PID.TID 0000.0001) %MON vort_p_sd                    =   3.5015220228207E-05
(PID.TID 0000.0001) %MON surfExpan_theta_mean         =   8.9663561753209E-05
(PID.TID 0000.0001) %MON surfExpan_salt_mean          =  -6.9171706221641E-05
(PID.TID 0000.0001) // =======================================================
(PID.TID 0000.0001) // End MONITOR dynamic field statistics
(PID.TID 0000.0001) // =======================================================
(PID.TID 0000.0001) // =======================================================
(PID.TID 0000.0001) // Begin OBCS MONITOR field statistics
(PID.TID 0000.0001) // =======================================================
(PID.TID 0000.0001) %MON obc_N_vVel_max               =   6.7842437893334E-01
(PID.TID 0000.0001) %MON obc_N_vVel_min               =  -7.0134687434891E-01
(PID.TID 0000.0001) %MON obc_N_vVel_mean              =  -6.8435125134976E-03
(PID.TID 0000.0001) %MON obc_N_vVel_sd                =   6.2855523658616E-02
(PID.TID 0000.0001) %MON obc_N_vVel_Int               =  -9.7965459652066E+07
(PID.TID 0000.0001) %MON obc_S_vVel_max               =   1.5963292484064E+00
(PID.TID 0000.0001) %MON obc_S_vVel_min               =  -2.5357821306161E-01
(PID.TID 0000.0001) %MON obc_S_vVel_mean              =  -4.0587555468726E-03
(PID.TID 0000.0001) %MON obc_S_vVel_sd                =   3.6990417865539E-02
(PID.TID 0000.0001) %MON obc_S_vVel_Int               =  -1.2356028791036E+08
(PID.TID 0000.0001) %MON obc_N_theta_max              =   1.6389803818919E+01
(PID.TID 0000.0001) %MON obc_N_theta_min              =   1.8895913157701E+00
(PID.TID 0000.0001) %MON obc_N_theta_mean             =   5.1588918920883E+00
(PID.TID 0000.0001) %MON obc_N_theta_sd               =   3.4826224400857E+00
(PID.TID 0000.0001) %MON obc_S_theta_max              =   2.5543708323453E+01
(PID.TID 0000.0001) %MON obc_S_theta_min              =   1.4633003963337E+00
(PID.TID 0000.0001) %MON obc_S_theta_mean             =   5.4595481199165E+00
(PID.TID 0000.0001) %MON obc_S_theta_sd               =   5.3558905817403E+00
(PID.TID 0000.0001) %MON obc_N_salt_max               =   3.5910862747600E+01
(PID.TID 0000.0001) %MON obc_N_salt_min               =   3.3295080101645E+01
(PID.TID 0000.0001) %MON obc_N_salt_mean              =   3.5114560764510E+01
(PID.TID 0000.0001) %MON obc_N_salt_sd                =   3.0984789812991E-01
(PID.TID 0000.0001) %MON obc_S_salt_max               =   3.7318264018012E+01
(PID.TID 0000.0001) %MON obc_S_salt_min               =   3.4844694940461E+01
(PID.TID 0000.0001) %MON obc_S_salt_mean              =   3.5168372075835E+01
(PID.TID 0000.0001) %MON obc_S_salt_sd                =   4.5716689507451E-01
(PID.TID 0000.0001) // =======================================================
(PID.TID 0000.0001) // End OBCS MONITOR field statistics
(PID.TID 0000.0001) // =======================================================
(PID.TID 0000.0001) // =======================================================
(PID.TID 0000.0001) // Begin MONITOR EXF statistics
(PID.TID 0000.0001) // =======================================================
(PID.TID 0000.0001) %MON exf_tsnumber                 =                    12
(PID.TID 0000.0001) %MON exf_time_sec                 =   2.8800000000000E+03
(PID.TID 0000.0001) %MON exf_ustress_max              =   8.9065415157541E-01
(PID.TID 0000.0001) %MON exf_ustress_min              =  -3.9835857555411E-01
(PID.TID 0000.0001) %MON exf_ustress_mean             =   6.3870616504622E-02
(PID.TID 0000.0001) %MON exf_ustress_sd               =   1.5548236891262E-01
(PID.TID 0000.0001) %MON exf_ustress_del2             =   4.1490147379615E-07
(PID.TID 0000.0001) %MON exf_vstress_max              =   4.0040827790431E-01
(PID.TID 0000.0001) %MON exf_vstress_min              =  -5.6659513782624E-01
(PID.TID 0000.0001) %MON exf_vstress_mean             =   1.1158764821369E-02
(PID.TID 0000.0001) %MON exf_vstress_sd               =   1.0205400463985E-01
(PID.TID 0000.0001) %MON exf_vstress_del2             =   3.0990672907664E-07
(PID.TID 0000.0001) %MON exf_hflux_max                =   1.1865754739796E+03
(PID.TID 0000.0001) %MON exf_hflux_min                =  -2.9637832505331E+02
(PID.TID 0000.0001) %MON exf_hflux_mean               =   2.3964372229779E+02
(PID.TID 0000.0001) %MON exf_hflux_sd                 =   1.4079800022938E+02
(PID.TID 0000.0001) %MON exf_hflux_del2               =   1.0916935896788E-01
(PID.TID 0000.0001) %MON exf_sflux_max                =   2.5868658106354E-07
(PID.TID 0000.0001) %MON exf_sflux_min                =  -1.7936417962680E-06
(PID.TID 0000.0001) %MON exf_sflux_mean               =   1.6372782305473E-08
(PID.TID 0000.0001) %MON exf_sflux_sd                 =   1.3237993885996E-07
(PID.TID 0000.0001) %MON exf_sflux_del2               =   5.2807240506888E-11
(PID.TID 0000.0001) %MON exf_uwind_max                =   2.0058559082595E+01
(PID.TID 0000.0001) %MON exf_uwind_min                =  -1.4797076253968E+01
(PID.TID 0000.0001) %MON exf_uwind_mean               =   2.4861157450939E+00
(PID.TID 0000.0001) %MON exf_uwind_sd                 =   6.6698375172896E+00
(PID.TID 0000.0001) %MON exf_uwind_del2               =   2.8407602428780E-03
(PID.TID 0000.0001) %MON exf_vwind_max                =   1.4586919551389E+01
(PID.TID 0000.0001) %MON exf_vwind_min                =  -1.2814672686770E+01
(PID.TID 0000.0001) %MON exf_vwind_mean               =   8.7207421084039E-01
(PID.TID 0000.0001) %MON exf_vwind_sd                 =   5.1825944813860E+00
(PID.TID 0000.0001) %MON exf_vwind_del2               =   2.0909837361161E-03
(PID.TID 0000.0001) %MON exf_wspeed_max               =   2.0241860884912E+01
(PID.TID 0000.0001) %MON exf_wspeed_min               =   1.3915259233021E-02
(PID.TID 0000.0001) %MON exf_wspeed_mean              =   7.7147804068002E+00
(PID.TID 0000.0001) %MON exf_wspeed_sd                =   4.3323742067837E+00
(PID.TID 0000.0001) %MON exf_wspeed_del2              =   3.5270260018535E-03
(PID.TID 0000.0001) %MON exf_atemp_max                =   2.9815145670426E+02
(PID.TID 0000.0001) %MON exf_atemp_min                =   2.7424454417195E+02
(PID.TID 0000.0001) %MON exf_atemp_mean               =   2.9066469231915E+02
(PID.TID 0000.0001) %MON exf_atemp_sd                 =   3.9466897201915E+00
(PID.TID 0000.0001) %MON exf_atemp_del2               =   6.8351870032580E-03
(PID.TID 0000.0001) %MON exf_aqh_max                  =   1.6738639922846E-02
(PID.TID 0000.0001) %MON exf_aqh_min                  =   2.7125265593127E-03
(PID.TID 0000.0001) %MON exf_aqh_mean                 =   9.4145146677745E-03
(PID.TID 0000.0001) %MON exf_aqh_sd                   =   2.8774129248554E-03
(PID.TID 0000.0001) %MON exf_aqh_del2                 =   3.7476715225364E-06
(PID.TID 0000.0001) %MON exf_lwflux_max               =   1.5394669643722E+02
(PID.TID 0000.0001) %MON exf_lwflux_min               =  -2.5800721295128E-01
(PID.TID 0000.0001) %MON exf_lwflux_mean              =   6.5347633226508E+01
(PID.TID 0000.0001) %MON exf_lwflux_sd                =   2.6516076032643E+01
(PID.TID 0000.0001) %MON exf_lwflux_del2              =   2.7065106625802E-02
(PID.TID 0000.0001) %MON exf_evap_max                 =   2.8714083031631E-07
(PID.TID 0000.0001) %MON exf_evap_min                 =  -9.8876025755958E-08
(PID.TID 0000.0001) %MON exf_evap_mean                =   5.9291246013576E-08
(PID.TID 0000.0001) %MON exf_evap_sd                  =   4.2105589753253E-08
(PID.TID 0000.0001) %MON exf_evap_del2                =   2.8598847739990E-11
(PID.TID 0000.0001) %MON exf_precip_max               =   1.9724582042779E-06
(PID.TID 0000.0001) %MON exf_precip_min               =   0.0000000000000E+00
(PID.TID 0000.0001) %MON exf_precip_mean              =   4.1329984302883E-08
(PID.TID 0000.0001) %MON exf_precip_sd                =   1.3800384791430E-07
(PID.TID 0000.0001) %MON exf_precip_del2              =   5.7808090136640E-11
(PID.TID 0000.0001) %MON exf_swflux_max               =   0.0000000000000E+00
(PID.TID 0000.0001) %MON exf_swflux_min               =   0.0000000000000E+00
(PID.TID 0000.0001) %MON exf_swflux_mean              =   0.0000000000000E+00
(PID.TID 0000.0001) %MON exf_swflux_sd                =   0.0000000000000E+00
(PID.TID 0000.0001) %MON exf_swflux_del2              =   0.0000000000000E+00
(PID.TID 0000.0001) %MON exf_swdown_max               =   0.0000000000000E+00
(PID.TID 0000.0001) %MON exf_swdown_min               =   0.0000000000000E+00
(PID.TID 0000.0001) %MON exf_swdown_mean              =   0.0000000000000E+00
(PID.TID 0000.0001) %MON exf_swdown_sd                =   0.0000000000000E+00
(PID.TID 0000.0001) %MON exf_swdown_del2              =   0.0000000000000E+00
(PID.TID 0000.0001) %MON exf_lwdown_max               =   4.1837492023739E+02
(PID.TID 0000.0001) %MON exf_lwdown_min               =   2.2467589834697E+02
(PID.TID 0000.0001) %MON exf_lwdown_mean              =   3.4968037056656E+02
(PID.TID 0000.0001) %MON exf_lwdown_sd                =   3.1587078891321E+01
(PID.TID 0000.0001) %MON exf_lwdown_del2              =   1.3543115719897E-01
(PID.TID 0000.0001) %MON exf_apressure_max            =   1.0281199025705E+05
(PID.TID 0000.0001) %MON exf_apressure_min            =   1.0001627344352E+05
(PID.TID 0000.0001) %MON exf_apressure_mean           =   1.0216840645902E+05
(PID.TID 0000.0001) %MON exf_apressure_sd             =   4.9879168551480E+02
(PID.TID 0000.0001) %MON exf_apressure_del2           =   3.9520945946583E+01
(PID.TID 0000.0001) %MON exf_runoff_max               =   4.4374791284855E-08
(PID.TID 0000.0001) %MON exf_runoff_min               =   0.0000000000000E+00
(PID.TID 0000.0001) %MON exf_runoff_mean              =   1.5884794052194E-09
(PID.TID 0000.0001) %MON exf_runoff_sd                =   5.3901957917178E-09
(PID.TID 0000.0001) %MON exf_runoff_del2              =   2.2191214937507E-12
(PID.TID 0000.0001) // =======================================================
(PID.TID 0000.0001) // End MONITOR EXF statistics
(PID.TID 0000.0001) // =======================================================
 cg2d: Sum(rhs),rhsMax =   7.01191644633574E+02  1.31430485350783E-01
(PID.TID 0000.0001)      cg2d_init_res =   1.41632403270836E+00
(PID.TID 0000.0001)      cg2d_iters(min,last) =      -1     310
(PID.TID 0000.0001)      cg2d_last_res =   6.65171473486915E-12
(PID.TID 0000.0001) // =======================================================
(PID.TID 0000.0001) // Begin MONITOR dynamic field statistics
(PID.TID 0000.0001) // =======================================================
(PID.TID 0000.0001) %MON time_tsnumber                =                    13
(PID.TID 0000.0001) %MON time_secondsf                =   3.1200000000000E+03
(PID.TID 0000.0001) %MON dynstat_eta_max              =   1.1204190462175E+00
(PID.TID 0000.0001) %MON dynstat_eta_min              =  -9.9847912127825E-01
(PID.TID 0000.0001) %MON dynstat_eta_mean             =  -2.3845495145862E-02
(PID.TID 0000.0001) %MON dynstat_eta_sd               =   2.2623880604480E-01
(PID.TID 0000.0001) %MON dynstat_eta_del2             =   2.2743145664574E-06
(PID.TID 0000.0001) %MON dynstat_uvel_max             =   1.3064697689699E+00
(PID.TID 0000.0001) %MON dynstat_uvel_min             =  -7.0077913298345E-01
(PID.TID 0000.0001) %MON dynstat_uvel_mean            =   3.2053569888663E-04
(PID.TID 0000.0001) %MON dynstat_uvel_sd              =   5.2075218836532E-02
(PID.TID 0000.0001) %MON dynstat_uvel_del2            =   5.3021835672801E-07
(PID.TID 0000.0001) %MON dynstat_vvel_max             =   1.8754345007154E+00
(PID.TID 0000.0001) %MON dynstat_vvel_min             =  -9.1781912329041E-01
(PID.TID 0000.0001) %MON dynstat_vvel_mean            =  -1.0342731293168E-02
(PID.TID 0000.0001) %MON dynstat_vvel_sd              =   4.8444047551094E-02
(PID.TID 0000.0001) %MON dynstat_vvel_del2            =   4.9299414554045E-07
(PID.TID 0000.0001) %MON dynstat_wvel_max             =   3.7121446000632E-02
(PID.TID 0000.0001) %MON dynstat_wvel_min             =  -3.2494005950990E-02
(PID.TID 0000.0001) %MON dynstat_wvel_mean            =  -1.8641073107037E-06
(PID.TID 0000.0001) %MON dynstat_wvel_sd              =   6.0922987006830E-04
(PID.TID 0000.0001) %MON dynstat_wvel_del2            =   7.0975814750234E-08
(PID.TID 0000.0001) %MON dynstat_theta_max            =   2.6147489634217E+01
(PID.TID 0000.0001) %MON dynstat_theta_min            =   1.4688649881023E+00
(PID.TID 0000.0001) %MON dynstat_theta_mean           =   5.5098487580581E+00
(PID.TID 0000.0001) %MON dynstat_theta_sd             =   4.7733384667323E+00
(PID.TID 0000.0001) %MON dynstat_theta_del2           =   4.0098720291263E-06
(PID.TID 0000.0001) %MON dynstat_salt_max             =   3.9147967420873E+01
(PID.TID 0000.0001) %MON dynstat_salt_min             =   3.3100098366626E+01
(PID.TID 0000.0001) %MON dynstat_salt_mean            =   3.5173370473153E+01
(PID.TID 0000.0001) %MON dynstat_salt_sd              =   3.7892256044479E-01
(PID.TID 0000.0001) %MON dynstat_salt_del2            =   5.2943954314993E-07
(PID.TID 0000.0001) %MON forcing_qnet_max             =   1.2048654082745E+03
(PID.TID 0000.0001) %MON forcing_qnet_min             =  -3.0129436645683E+02
(PID.TID 0000.0001) %MON forcing_qnet_mean            =   2.4171252856148E+02
(PID.TID 0000.0001) %MON forcing_qnet_sd              =   1.4245828328122E+02
(PID.TID 0000.0001) %MON forcing_qnet_del2            =   1.6779488936047E-03
(PID.TID 0000.0001) %MON forcing_qsw_max              =   0.0000000000000E+00
(PID.TID 0000.0001) %MON forcing_qsw_min              =   0.0000000000000E+00
(PID.TID 0000.0001) %MON forcing_qsw_mean             =   0.0000000000000E+00
(PID.TID 0000.0001) %MON forcing_qsw_sd               =   0.0000000000000E+00
(PID.TID 0000.0001) %MON forcing_qsw_del2             =   0.0000000000000E+00
(PID.TID 0000.0001) %MON forcing_empmr_max            =   2.5868658106354E-04
(PID.TID 0000.0001) %MON forcing_empmr_min            =  -1.7936417962680E-03
(PID.TID 0000.0001) %MON forcing_empmr_mean           =   1.6372782305473E-05
(PID.TID 0000.0001) %MON forcing_empmr_sd             =   1.3237993885996E-04
(PID.TID 0000.0001) %MON forcing_empmr_del2           =   2.7395120559683E-09
(PID.TID 0000.0001) %MON forcing_fu_max               =   8.9059270882442E-01
(PID.TID 0000.0001) %MON forcing_fu_min               =  -3.9827783920003E-01
(PID.TID 0000.0001) %MON forcing_fu_mean              =   6.3931975554639E-02
(PID.TID 0000.0001) %MON forcing_fu_sd                =   1.5554292552561E-01
(PID.TID 0000.0001) %MON forcing_fu_del2              =   3.7599420271873E-07
(PID.TID 0000.0001) %MON forcing_fv_max               =   4.0022124772543E-01
(PID.TID 0000.0001) %MON forcing_fv_min               =  -5.7115530064327E-01
(PID.TID 0000.0001) %MON forcing_fv_mean              =   1.1142068055801E-02
(PID.TID 0000.0001) %MON forcing_fv_sd                =   1.0218604845219E-01
(PID.TID 0000.0001) %MON forcing_fv_del2              =   2.8852561979237E-07
(PID.TID 0000.0001) %MON trAdv_CFL_u_max              =   7.7172648880932E-02
(PID.TID 0000.0001) %MON trAdv_CFL_v_max              =   1.1895435383758E-01
(PID.TID 0000.0001) %MON trAdv_CFL_w_max              =   5.2705945130681E-01
(PID.TID 0000.0001) %MON advcfl_uvel_max              =   7.7172647830157E-02
(PID.TID 0000.0001) %MON advcfl_vvel_max              =   1.1899264024527E-01
(PID.TID 0000.0001) %MON advcfl_wvel_max              =   5.1827512711836E-01
(PID.TID 0000.0001) %MON advcfl_W_hf_max              =   5.2705945130681E-01
(PID.TID 0000.0001) %MON pe_b_mean                    =  -5.2022982061505E-04
(PID.TID 0000.0001) %MON ke_max                       =   1.7608563380239E+00
(PID.TID 0000.0001) %MON ke_mean                      =   2.5638917667078E-03
(PID.TID 0000.0001) %MON ke_vol                       =   4.5818637279721E+16
(PID.TID 0000.0001) %MON vort_r_min                   =  -5.6821440092660E-04
(PID.TID 0000.0001) %MON vort_r_max                   =   5.5396258602474E-04
(PID.TID 0000.0001) %MON vort_a_mean                  =   8.2147612922886E-05
(PID.TID 0000.0001) %MON vort_a_sd                    =   1.0150400281976E-05
(PID.TID 0000.0001) %MON vort_p_mean                  =   8.4848833897746E-05
(PID.TID 0000.0001) %MON vort_p_sd                    =   3.5020983605098E-05
(PID.TID 0000.0001) %MON surfExpan_theta_mean         =   1.1974695476770E-04
(PID.TID 0000.0001) %MON surfExpan_salt_mean          =  -2.9036566438530E-05
(PID.TID 0000.0001) // =======================================================
(PID.TID 0000.0001) // End MONITOR dynamic field statistics
(PID.TID 0000.0001) // =======================================================
(PID.TID 0000.0001) // =======================================================
(PID.TID 0000.0001) // Begin OBCS MONITOR field statistics
(PID.TID 0000.0001) // =======================================================
(PID.TID 0000.0001) %MON obc_N_vVel_max               =   6.7831563764621E-01
(PID.TID 0000.0001) %MON obc_N_vVel_min               =  -6.9808492658889E-01
(PID.TID 0000.0001) %MON obc_N_vVel_mean              =  -6.9070337325533E-03
(PID.TID 0000.0001) %MON obc_N_vVel_sd                =   6.2849197998384E-02
(PID.TID 0000.0001) %MON obc_N_vVel_Int               =  -9.8874771268021E+07
(PID.TID 0000.0001) %MON obc_S_vVel_max               =   1.5970804622792E+00
(PID.TID 0000.0001) %MON obc_S_vVel_min               =  -2.5353683461832E-01
(PID.TID 0000.0001) %MON obc_S_vVel_mean              =  -3.6774037449133E-03
(PID.TID 0000.0001) %MON obc_S_vVel_sd                =   3.6985737791602E-02
(PID.TID 0000.0001) %MON obc_S_vVel_Int               =  -1.1195083326322E+08
(PID.TID 0000.0001) %MON obc_N_theta_max              =   1.6389715716732E+01
(PID.TID 0000.0001) %MON obc_N_theta_min              =   1.8895913648355E+00
(PID.TID 0000.0001) %MON obc_N_theta_mean             =   5.1588845079383E+00
(PID.TID 0000.0001) %MON obc_N_theta_sd               =   3.4826131499334E+00
(PID.TID 0000.0001) %MON obc_S_theta_max              =   2.5543605574674E+01
(PID.TID 0000.0001) %MON obc_S_theta_min              =   1.4633007926210E+00
(PID.TID 0000.0001) %MON obc_S_theta_mean             =   5.4595473148919E+00
(PID.TID 0000.0001) %MON obc_S_theta_sd               =   5.3558867108083E+00
(PID.TID 0000.0001) %MON obc_N_salt_max               =   3.5910862339236E+01
(PID.TID 0000.0001) %MON obc_N_salt_min               =   3.3295085604278E+01
(PID.TID 0000.0001) %MON obc_N_salt_mean              =   3.5114560468523E+01
(PID.TID 0000.0001) %MON obc_N_salt_sd                =   3.0984777908893E-01
(PID.TID 0000.0001) %MON obc_S_salt_max               =   3.7318257133628E+01
(PID.TID 0000.0001) %MON obc_S_salt_min               =   3.4844694992682E+01
(PID.TID 0000.0001) %MON obc_S_salt_mean              =   3.5168372003918E+01
(PID.TID 0000.0001) %MON obc_S_salt_sd                =   4.5716654406676E-01
(PID.TID 0000.0001) // =======================================================
(PID.TID 0000.0001) // End OBCS MONITOR field statistics
(PID.TID 0000.0001) // =======================================================
(PID.TID 0000.0001) // =======================================================
(PID.TID 0000.0001) // Begin MONITOR EXF statistics
(PID.TID 0000.0001) // =======================================================
(PID.TID 0000.0001) %MON exf_tsnumber                 =                    13
(PID.TID 0000.0001) %MON exf_time_sec                 =   3.1200000000000E+03
(PID.TID 0000.0001) %MON exf_ustress_max              =   9.0431467393388E-01
(PID.TID 0000.0001) %MON exf_ustress_min              =  -3.9614131837033E-01
(PID.TID 0000.0001) %MON exf_ustress_mean             =   6.4097113300395E-02
(PID.TID 0000.0001) %MON exf_ustress_sd               =   1.5582195426599E-01
(PID.TID 0000.0001) %MON exf_ustress_del2             =   4.3122483226673E-07
(PID.TID 0000.0001) %MON exf_vstress_max              =   4.0506273435367E-01
(PID.TID 0000.0001) %MON exf_vstress_min              =  -5.6818704522886E-01
(PID.TID 0000.0001) %MON exf_vstress_mean             =   1.1232518579891E-02
(PID.TID 0000.0001) %MON exf_vstress_sd               =   1.0237390269135E-01
(PID.TID 0000.0001) %MON exf_vstress_del2             =   3.2824423336106E-07
(PID.TID 0000.0001) %MON exf_hflux_max                =   1.1935792499695E+03
(PID.TID 0000.0001) %MON exf_hflux_min                =  -2.9915955198045E+02
(PID.TID 0000.0001) %MON exf_hflux_mean               =   2.3972539374004E+02
(PID.TID 0000.0001) %MON exf_hflux_sd                 =   1.4104309083097E+02
(PID.TID 0000.0001) %MON exf_hflux_del2               =   1.0926620244241E-01
(PID.TID 0000.0001) %MON exf_sflux_max                =   2.5974127581024E-07
(PID.TID 0000.0001) %MON exf_sflux_min                =  -1.8124537236263E-06
(PID.TID 0000.0001) %MON exf_sflux_mean               =   1.6154527243274E-08
(PID.TID 0000.0001) %MON exf_sflux_sd                 =   1.3269308598855E-07
(PID.TID 0000.0001) %MON exf_sflux_del2               =   5.2816251783806E-11
(PID.TID 0000.0001) %MON exf_uwind_max                =   2.0175629295469E+01
(PID.TID 0000.0001) %MON exf_uwind_min                =  -1.4775673718961E+01
(PID.TID 0000.0001) %MON exf_uwind_mean               =   2.4882750821639E+00
(PID.TID 0000.0001) %MON exf_uwind_sd                 =   6.6723580079839E+00
(PID.TID 0000.0001) %MON exf_uwind_del2               =   2.8419928001775E-03
(PID.TID 0000.0001) %MON exf_vwind_max                =   1.4664955323673E+01
(PID.TID 0000.0001) %MON exf_vwind_min                =  -1.2838901624418E+01
(PID.TID 0000.0001) %MON exf_vwind_mean               =   8.7404874496395E-01
(PID.TID 0000.0001) %MON exf_vwind_sd                 =   5.1875911852133E+00
(PID.TID 0000.0001) %MON exf_vwind_del2               =   2.0934358878028E-03
(PID.TID 0000.0001) %MON exf_wspeed_max               =   2.0274864033775E+01
(PID.TID 0000.0001) %MON exf_wspeed_min               =   1.0250119205280E-03
(PID.TID 0000.0001) %MON exf_wspeed_mean              =   7.7181005561966E+00
(PID.TID 0000.0001) %MON exf_wspeed_sd                =   4.3379559229132E+00
(PID.TID 0000.0001) %MON exf_wspeed_del2              =   3.5294565120540E-03
(PID.TID 0000.0001) %MON exf_atemp_max                =   2.9814925941584E+02
(PID.TID 0000.0001) %MON exf_atemp_min                =   2.7421894296331E+02
(PID.TID 0000.0001) %MON exf_atemp_mean               =   2.9066157111295E+02
(PID.TID 0000.0001) %MON exf_atemp_sd                 =   3.9477200203663E+00
(PID.TID 0000.0001) %MON exf_atemp_del2               =   6.8340585425561E-03
(PID.TID 0000.0001) %MON exf_aqh_max                  =   1.6731653621973E-02
(PID.TID 0000.0001) %MON exf_aqh_min                  =   2.7102318615487E-03
(PID.TID 0000.0001) %MON exf_aqh_mean                 =   9.4133265149605E-03
(PID.TID 0000.0001) %MON exf_aqh_sd                   =   2.8788045368042E-03
(PID.TID 0000.0001) %MON exf_aqh_del2                 =   3.7473124270333E-06
(PID.TID 0000.0001) %MON exf_lwflux_max               =   1.5421772350703E+02
(PID.TID 0000.0001) %MON exf_lwflux_min               =  -2.2891541862360E-01
(PID.TID 0000.0001) %MON exf_lwflux_mean              =   6.5329919073532E+01
(PID.TID 0000.0001) %MON exf_lwflux_sd                =   2.6491983090455E+01
(PID.TID 0000.0001) %MON exf_lwflux_del2              =   2.7053151133749E-02
(PID.TID 0000.0001) %MON exf_evap_max                 =   2.8936620924979E-07
(PID.TID 0000.0001) %MON exf_evap_min                 =  -9.9768295803504E-08
(PID.TID 0000.0001) %MON exf_evap_mean                =   5.9316126223604E-08
(PID.TID 0000.0001) %MON exf_evap_sd                  =   4.2155032445276E-08
(PID.TID 0000.0001) %MON exf_evap_del2                =   2.8624032226287E-11
(PID.TID 0000.0001) %MON exf_precip_max               =   1.9919087312383E-06
(PID.TID 0000.0001) %MON exf_precip_min               =   0.0000000000000E+00
(PID.TID 0000.0001) %MON exf_precip_mean              =   4.1573119575111E-08
(PID.TID 0000.0001) %MON exf_precip_sd                =   1.3847173982181E-07
(PID.TID 0000.0001) %MON exf_precip_del2              =   5.7911885402760E-11
(PID.TID 0000.0001) %MON exf_swflux_max               =   0.0000000000000E+00
(PID.TID 0000.0001) %MON exf_swflux_min               =   0.0000000000000E+00
(PID.TID 0000.0001) %MON exf_swflux_mean              =   0.0000000000000E+00
(PID.TID 0000.0001) %MON exf_swflux_sd                =   0.0000000000000E+00
(PID.TID 0000.0001) %MON exf_swflux_del2              =   0.0000000000000E+00
(PID.TID 0000.0001) %MON exf_swdown_max               =   0.0000000000000E+00
(PID.TID 0000.0001) %MON exf_swdown_min               =   0.0000000000000E+00
(PID.TID 0000.0001) %MON exf_swdown_mean              =   0.0000000000000E+00
(PID.TID 0000.0001) %MON exf_swdown_sd                =   0.0000000000000E+00
(PID.TID 0000.0001) %MON exf_swdown_del2              =   0.0000000000000E+00
(PID.TID 0000.0001) %MON exf_lwdown_max               =   4.1840604284666E+02
(PID.TID 0000.0001) %MON exf_lwdown_min               =   2.2445126639892E+02
(PID.TID 0000.0001) %MON exf_lwdown_mean              =   3.4969486171956E+02
(PID.TID 0000.0001) %MON exf_lwdown_sd                =   3.1528634700620E+01
(PID.TID 0000.0001) %MON exf_lwdown_del2              =   1.3543592526740E-01
(PID.TID 0000.0001) %MON exf_apressure_max            =   1.0281513960403E+05
(PID.TID 0000.0001) %MON exf_apressure_min            =   1.0001593693690E+05
(PID.TID 0000.0001) %MON exf_apressure_mean           =   1.0216918376558E+05
(PID.TID 0000.0001) %MON exf_apressure_sd             =   4.9886755904092E+02
(PID.TID 0000.0001) %MON exf_apressure_del2           =   3.9521253763380E+01
(PID.TID 0000.0001) %MON exf_runoff_max               =   4.4374791284855E-08
(PID.TID 0000.0001) %MON exf_runoff_min               =   0.0000000000000E+00
(PID.TID 0000.0001) %MON exf_runoff_mean              =   1.5884794052194E-09
(PID.TID 0000.0001) %MON exf_runoff_sd                =   5.3901957917178E-09
(PID.TID 0000.0001) %MON exf_runoff_del2              =   2.2191214937507E-12
(PID.TID 0000.0001) // =======================================================
(PID.TID 0000.0001) // End MONITOR EXF statistics
(PID.TID 0000.0001) // =======================================================
 cg2d: Sum(rhs),rhsMax =   7.01519183188106E+02  1.39294971172892E-01
(PID.TID 0000.0001)      cg2d_init_res =   1.42141375743069E+00
(PID.TID 0000.0001)      cg2d_iters(min,last) =      -1     310
(PID.TID 0000.0001)      cg2d_last_res =   6.84269739048470E-12
(PID.TID 0000.0001) // =======================================================
(PID.TID 0000.0001) // Begin MONITOR dynamic field statistics
(PID.TID 0000.0001) // =======================================================
(PID.TID 0000.0001) %MON time_tsnumber                =                    14
(PID.TID 0000.0001) %MON time_secondsf                =   3.3600000000000E+03
(PID.TID 0000.0001) %MON dynstat_eta_max              =   1.1233210796990E+00
(PID.TID 0000.0001) %MON dynstat_eta_min              =  -1.0330170516333E+00
(PID.TID 0000.0001) %MON dynstat_eta_mean             =  -2.3856633782599E-02
(PID.TID 0000.0001) %MON dynstat_eta_sd               =   2.3143400132847E-01
(PID.TID 0000.0001) %MON dynstat_eta_del2             =   2.2990958156466E-06
(PID.TID 0000.0001) %MON dynstat_uvel_max             =   1.2665047252445E+00
(PID.TID 0000.0001) %MON dynstat_uvel_min             =  -7.0133912294423E-01
(PID.TID 0000.0001) %MON dynstat_uvel_mean            =  -8.5774358394830E-05
(PID.TID 0000.0001) %MON dynstat_uvel_sd              =   5.2057587809990E-02
(PID.TID 0000.0001) %MON dynstat_uvel_del2            =   5.3822122569914E-07
(PID.TID 0000.0001) %MON dynstat_vvel_max             =   1.8741169059745E+00
(PID.TID 0000.0001) %MON dynstat_vvel_min             =  -9.1671620960636E-01
(PID.TID 0000.0001) %MON dynstat_vvel_mean            =  -1.0684649503412E-02
(PID.TID 0000.0001) %MON dynstat_vvel_sd              =   4.8490102543169E-02
(PID.TID 0000.0001) %MON dynstat_vvel_del2            =   5.0107052929902E-07
(PID.TID 0000.0001) %MON dynstat_wvel_max             =   3.8473402230229E-02
(PID.TID 0000.0001) %MON dynstat_wvel_min             =  -3.2914519750977E-02
(PID.TID 0000.0001) %MON dynstat_wvel_mean            =  -1.1834361666499E-06
(PID.TID 0000.0001) %MON dynstat_wvel_sd              =   6.1223959499449E-04
(PID.TID 0000.0001) %MON dynstat_wvel_del2            =   7.0386173522921E-08
(PID.TID 0000.0001) %MON dynstat_theta_max            =   2.6148996329704E+01
(PID.TID 0000.0001) %MON dynstat_theta_min            =   1.4688651388541E+00
(PID.TID 0000.0001) %MON dynstat_theta_mean           =   5.5098360088082E+00
(PID.TID 0000.0001) %MON dynstat_theta_sd             =   4.7733010454035E+00
(PID.TID 0000.0001) %MON dynstat_theta_del2           =   4.0108284253257E-06
(PID.TID 0000.0001) %MON dynstat_salt_max             =   3.9143566776218E+01
(PID.TID 0000.0001) %MON dynstat_salt_min             =   3.3101205536778E+01
(PID.TID 0000.0001) %MON dynstat_salt_mean            =   3.5173369582444E+01
(PID.TID 0000.0001) %MON dynstat_salt_sd              =   3.7892114457181E-01
(PID.TID 0000.0001) %MON dynstat_salt_del2            =   5.3164397505405E-07
(PID.TID 0000.0001) %MON forcing_qnet_max             =   1.2120062138766E+03
(PID.TID 0000.0001) %MON forcing_qnet_min             =  -3.0411351154272E+02
(PID.TID 0000.0001) %MON forcing_qnet_mean            =   2.4178028141847E+02
(PID.TID 0000.0001) %MON forcing_qnet_sd              =   1.4268131593387E+02
(PID.TID 0000.0001) %MON forcing_qnet_del2            =   1.6891666354657E-03
(PID.TID 0000.0001) %MON forcing_qsw_max              =   0.0000000000000E+00
(PID.TID 0000.0001) %MON forcing_qsw_min              =   0.0000000000000E+00
(PID.TID 0000.0001) %MON forcing_qsw_mean             =   0.0000000000000E+00
(PID.TID 0000.0001) %MON forcing_qsw_sd               =   0.0000000000000E+00
(PID.TID 0000.0001) %MON forcing_qsw_del2             =   0.0000000000000E+00
(PID.TID 0000.0001) %MON forcing_empmr_max            =   2.5974127581024E-04
(PID.TID 0000.0001) %MON forcing_empmr_min            =  -1.8124537236263E-03
(PID.TID 0000.0001) %MON forcing_empmr_mean           =   1.6154527243274E-05
(PID.TID 0000.0001) %MON forcing_empmr_sd             =   1.3269308598855E-04
(PID.TID 0000.0001) %MON forcing_empmr_del2           =   2.6590102817209E-09
(PID.TID 0000.0001) %MON forcing_fu_max               =   9.0389245825014E-01
(PID.TID 0000.0001) %MON forcing_fu_min               =  -3.9613129865109E-01
(PID.TID 0000.0001) %MON forcing_fu_mean              =   6.4159035248334E-02
(PID.TID 0000.0001) %MON forcing_fu_sd                =   1.5588263548656E-01
(PID.TID 0000.0001) %MON forcing_fu_del2              =   3.9265508567729E-07
(PID.TID 0000.0001) %MON forcing_fv_max               =   4.0500589181338E-01
(PID.TID 0000.0001) %MON forcing_fv_min               =  -5.7301277929225E-01
(PID.TID 0000.0001) %MON forcing_fv_mean              =   1.1216195037342E-02
(PID.TID 0000.0001) %MON forcing_fv_sd                =   1.0250600366961E-01
(PID.TID 0000.0001) %MON forcing_fv_del2              =   3.0617545313511E-07
(PID.TID 0000.0001) %MON trAdv_CFL_u_max              =   7.6839807887728E-02
(PID.TID 0000.0001) %MON trAdv_CFL_v_max              =   1.1885585404386E-01
(PID.TID 0000.0001) %MON trAdv_CFL_w_max              =   5.3100441037242E-01
(PID.TID 0000.0001) %MON advcfl_uvel_max              =   7.6839806841484E-02
(PID.TID 0000.0001) %MON advcfl_vvel_max              =   1.1889410874862E-01
(PID.TID 0000.0001) %MON advcfl_wvel_max              =   5.2215433686621E-01
(PID.TID 0000.0001) %MON advcfl_W_hf_max              =   5.3100441037242E-01
(PID.TID 0000.0001) %MON pe_b_mean                    =  -5.1705187125855E-04
(PID.TID 0000.0001) %MON ke_max                       =   1.7585690281361E+00
(PID.TID 0000.0001) %MON ke_mean                      =   2.5687304136697E-03
(PID.TID 0000.0001) %MON ke_vol                       =   4.5818637279721E+16
(PID.TID 0000.0001) %MON vort_r_min                   =  -5.6775433663593E-04
(PID.TID 0000.0001) %MON vort_r_max                   =   5.6059096863427E-04
(PID.TID 0000.0001) %MON vort_a_mean                  =   8.2147613209370E-05
(PID.TID 0000.0001) %MON vort_a_sd                    =   1.0153739304686E-05
(PID.TID 0000.0001) %MON vort_p_mean                  =   8.4848834193651E-05
(PID.TID 0000.0001) %MON vort_p_sd                    =   3.5027003346055E-05
(PID.TID 0000.0001) %MON surfExpan_theta_mean         =   1.5054894987862E-04
(PID.TID 0000.0001) %MON surfExpan_salt_mean          =   1.1371973507887E-05
(PID.TID 0000.0001) // =======================================================
(PID.TID 0000.0001) // End MONITOR dynamic field statistics
(PID.TID 0000.0001) // =======================================================
(PID.TID 0000.0001) // =======================================================
(PID.TID 0000.0001) // Begin OBCS MONITOR field statistics
(PID.TID 0000.0001) // =======================================================
(PID.TID 0000.0001) %MON obc_N_vVel_max               =   6.7820689293891E-01
(PID.TID 0000.0001) %MON obc_N_vVel_min               =  -6.9415258636950E-01
(PID.TID 0000.0001) %MON obc_N_vVel_mean              =  -6.9618645488527E-03
(PID.TID 0000.0001) %MON obc_N_vVel_sd                =   6.2840062240179E-02
(PID.TID 0000.0001) %MON obc_N_vVel_Int               =  -9.9659679034504E+07
(PID.TID 0000.0001) %MON obc_S_vVel_max               =   1.5978018601399E+00
(PID.TID 0000.0001) %MON obc_S_vVel_min               =  -2.5350165259478E-01
(PID.TID 0000.0001) %MON obc_S_vVel_mean              =  -3.2908885887114E-03
(PID.TID 0000.0001) %MON obc_S_vVel_sd                =   3.6980430855494E-02
(PID.TID 0000.0001) %MON obc_S_vVel_Int               =  -1.0018419114091E+08
(PID.TID 0000.0001) %MON obc_N_theta_max              =   1.6389627614545E+01
(PID.TID 0000.0001) %MON obc_N_theta_min              =   1.8895914139009E+00
(PID.TID 0000.0001) %MON obc_N_theta_mean             =   5.1588771237883E+00
(PID.TID 0000.0001) %MON obc_N_theta_sd               =   3.4826038600191E+00
(PID.TID 0000.0001) %MON obc_S_theta_max              =   2.5543502825894E+01
(PID.TID 0000.0001) %MON obc_S_theta_min              =   1.4633011889082E+00
(PID.TID 0000.0001) %MON obc_S_theta_mean             =   5.4595465098673E+00
(PID.TID 0000.0001) %MON obc_S_theta_sd               =   5.3558828399123E+00
(PID.TID 0000.0001) %MON obc_N_salt_max               =   3.5910861930873E+01
(PID.TID 0000.0001) %MON obc_N_salt_min               =   3.3295091106912E+01
(PID.TID 0000.0001) %MON obc_N_salt_mean              =   3.5114560172537E+01
(PID.TID 0000.0001) %MON obc_N_salt_sd                =   3.0984766008600E-01
(PID.TID 0000.0001) %MON obc_S_salt_max               =   3.7318250249244E+01
(PID.TID 0000.0001) %MON obc_S_salt_min               =   3.4844695044902E+01
(PID.TID 0000.0001) %MON obc_S_salt_mean              =   3.5168371932002E+01
(PID.TID 0000.0001) %MON obc_S_salt_sd                =   4.5716619306262E-01
(PID.TID 0000.0001) // =======================================================
(PID.TID 0000.0001) // End OBCS MONITOR field statistics
(PID.TID 0000.0001) // =======================================================
(PID.TID 0000.0001) // =======================================================
(PID.TID 0000.0001) // Begin MONITOR EXF statistics
(PID.TID 0000.0001) // =======================================================
(PID.TID 0000.0001) %MON exf_tsnumber                 =                    14
(PID.TID 0000.0001) %MON exf_time_sec                 =   3.3600000000000E+03
(PID.TID 0000.0001) %MON exf_ustress_max              =   9.1822583390112E-01
(PID.TID 0000.0001) %MON exf_ustress_min              =  -3.9413759231522E-01
(PID.TID 0000.0001) %MON exf_ustress_mean             =   6.4348094039162E-02
(PID.TID 0000.0001) %MON exf_ustress_sd               =   1.5623682393429E-01
(PID.TID 0000.0001) %MON exf_ustress_del2             =   4.5070834682654E-07
(PID.TID 0000.0001) %MON exf_vstress_max              =   4.1043344955540E-01
(PID.TID 0000.0001) %MON exf_vstress_min              =  -5.7009192232860E-01
(PID.TID 0000.0001) %MON exf_vstress_mean             =   1.1305056655462E-02
(PID.TID 0000.0001) %MON exf_vstress_sd               =   1.0275956718812E-01
(PID.TID 0000.0001) %MON exf_vstress_del2             =   3.5010598025069E-07
(PID.TID 0000.0001) %MON exf_hflux_max                =   1.2007099617892E+03
(PID.TID 0000.0001) %MON exf_hflux_min                =  -3.0199489837396E+02
(PID.TID 0000.0001) %MON exf_hflux_mean               =   2.3982966099073E+02
(PID.TID 0000.0001) %MON exf_hflux_sd                 =   1.4132885577184E+02
(PID.TID 0000.0001) %MON exf_hflux_del2               =   1.0938105734182E-01
(PID.TID 0000.0001) %MON exf_sflux_max                =   2.6127667674128E-07
(PID.TID 0000.0001) %MON exf_sflux_min                =  -1.8312691912824E-06
(PID.TID 0000.0001) %MON exf_sflux_mean               =   1.5943499273057E-08
(PID.TID 0000.0001) %MON exf_sflux_sd                 =   1.3331275949427E-07
(PID.TID 0000.0001) %MON exf_sflux_del2               =   5.2958531871337E-11
(PID.TID 0000.0001) %MON exf_uwind_max                =   2.0297462555733E+01
(PID.TID 0000.0001) %MON exf_uwind_min                =  -1.4754570522198E+01
(PID.TID 0000.0001) %MON exf_uwind_mean               =   2.4904639964526E+00
(PID.TID 0000.0001) %MON exf_uwind_sd                 =   6.6755766865732E+00
(PID.TID 0000.0001) %MON exf_uwind_del2               =   2.8434915406801E-03
(PID.TID 0000.0001) %MON exf_vwind_max                =   1.4756263674118E+01
(PID.TID 0000.0001) %MON exf_vwind_min                =  -1.2868222598216E+01
(PID.TID 0000.0001) %MON exf_vwind_mean               =   8.7595129519321E-01
(PID.TID 0000.0001) %MON exf_vwind_sd                 =   5.1940315271773E+00
(PID.TID 0000.0001) %MON exf_vwind_del2               =   2.0964620664288E-03
(PID.TID 0000.0001) %MON exf_wspeed_max               =   2.0405657023361E+01
(PID.TID 0000.0001) %MON exf_wspeed_min               =   1.8017567147634E-02
(PID.TID 0000.0001) %MON exf_wspeed_mean              =   7.7224578278442E+00
(PID.TID 0000.0001) %MON exf_wspeed_sd                =   4.3444947105476E+00
(PID.TID 0000.0001) %MON exf_wspeed_del2              =   3.5324391211788E-03
(PID.TID 0000.0001) %MON exf_atemp_max                =   2.9814706212742E+02
(PID.TID 0000.0001) %MON exf_atemp_min                =   2.7419334175467E+02
(PID.TID 0000.0001) %MON exf_atemp_mean               =   2.9065844990676E+02
(PID.TID 0000.0001) %MON exf_atemp_sd                 =   3.9488923540295E+00
(PID.TID 0000.0001) %MON exf_atemp_del2               =   6.8329438603542E-03
(PID.TID 0000.0001) %MON exf_aqh_max                  =   1.6724667321099E-02
(PID.TID 0000.0001) %MON exf_aqh_min                  =   2.7079371637848E-03
(PID.TID 0000.0001) %MON exf_aqh_mean                 =   9.4121383621464E-03
(PID.TID 0000.0001) %MON exf_aqh_sd                   =   2.8803678201485E-03
(PID.TID 0000.0001) %MON exf_aqh_del2                 =   3.7469751676613E-06
(PID.TID 0000.0001) %MON exf_lwflux_max               =   1.5448843490386E+02
(PID.TID 0000.0001) %MON exf_lwflux_min               =  -2.6010079805601E-01
(PID.TID 0000.0001) %MON exf_lwflux_mean              =   6.5312340332283E+01
(PID.TID 0000.0001) %MON exf_lwflux_sd                =   2.6487166978376E+01
(PID.TID 0000.0001) %MON exf_lwflux_del2              =   2.7044308850867E-02
(PID.TID 0000.0001) %MON exf_evap_max                 =   2.9162098160121E-07
(PID.TID 0000.0001) %MON exf_evap_min                 =  -1.0067571034031E-07
(PID.TID 0000.0001) %MON exf_evap_mean                =   5.9348233525615E-08
(PID.TID 0000.0001) %MON exf_evap_sd                  =   4.2216883793144E-08
(PID.TID 0000.0001) %MON exf_evap_del2                =   2.8654804723395E-11
(PID.TID 0000.0001) %MON exf_precip_max               =   2.0113592581988E-06
(PID.TID 0000.0001) %MON exf_precip_min               =   0.0000000000000E+00
(PID.TID 0000.0001) %MON exf_precip_mean              =   4.1816254847339E-08
(PID.TID 0000.0001) %MON exf_precip_sd                =   1.3924115911834E-07
(PID.TID 0000.0001) %MON exf_precip_del2              =   5.8140031239136E-11
(PID.TID 0000.0001) %MON exf_swflux_max               =   0.0000000000000E+00
(PID.TID 0000.0001) %MON exf_swflux_min               =   0.0000000000000E+00
(PID.TID 0000.0001) %MON exf_swflux_mean              =   0.0000000000000E+00
(PID.TID 0000.0001) %MON exf_swflux_sd                =   0.0000000000000E+00
(PID.TID 0000.0001) %MON exf_swflux_del2              =   0.0000000000000E+00
(PID.TID 0000.0001) %MON exf_swdown_max               =   0.0000000000000E+00
(PID.TID 0000.0001) %MON exf_swdown_min               =   0.0000000000000E+00
(PID.TID 0000.0001) %MON exf_swdown_mean              =   0.0000000000000E+00
(PID.TID 0000.0001) %MON exf_swdown_sd                =   0.0000000000000E+00
(PID.TID 0000.0001) %MON exf_swdown_del2              =   0.0000000000000E+00
(PID.TID 0000.0001) %MON exf_lwdown_max               =   4.1843716545593E+02
(PID.TID 0000.0001) %MON exf_lwdown_min               =   2.2422663445087E+02
(PID.TID 0000.0001) %MON exf_lwdown_mean              =   3.4970935287256E+02
(PID.TID 0000.0001) %MON exf_lwdown_sd                =   3.1487341464055E+01
(PID.TID 0000.0001) %MON exf_lwdown_del2              =   1.3544134476363E-01
(PID.TID 0000.0001) %MON exf_apressure_max            =   1.0281834697520E+05
(PID.TID 0000.0001) %MON exf_apressure_min            =   1.0001465908832E+05
(PID.TID 0000.0001) %MON exf_apressure_mean           =   1.0216996107213E+05
(PID.TID 0000.0001) %MON exf_apressure_sd             =   4.9898322972271E+02
(PID.TID 0000.0001) %MON exf_apressure_del2           =   3.9521561661577E+01
(PID.TID 0000.0001) %MON exf_runoff_max               =   4.4374791284855E-08
(PID.TID 0000.0001) %MON exf_runoff_min               =   0.0000000000000E+00
(PID.TID 0000.0001) %MON exf_runoff_mean              =   1.5884794052194E-09
(PID.TID 0000.0001) %MON exf_runoff_sd                =   5.3901957917178E-09
(PID.TID 0000.0001) %MON exf_runoff_del2              =   2.2191214937507E-12
(PID.TID 0000.0001) // =======================================================
(PID.TID 0000.0001) // End MONITOR EXF statistics
(PID.TID 0000.0001) // =======================================================
 cg2d: Sum(rhs),rhsMax =   6.93997188967735E+02  1.38825935049856E-01
(PID.TID 0000.0001)      cg2d_init_res =   1.47335142320798E+00
(PID.TID 0000.0001)      cg2d_iters(min,last) =      -1     310
(PID.TID 0000.0001)      cg2d_last_res =   6.85977925789158E-12
(PID.TID 0000.0001) // =======================================================
(PID.TID 0000.0001) // Begin MONITOR dynamic field statistics
(PID.TID 0000.0001) // =======================================================
(PID.TID 0000.0001) %MON time_tsnumber                =                    15
(PID.TID 0000.0001) %MON time_secondsf                =   3.6000000000000E+03
(PID.TID 0000.0001) %MON dynstat_eta_max              =   1.1258169472317E+00
(PID.TID 0000.0001) %MON dynstat_eta_min              =  -1.1412622636640E+00
(PID.TID 0000.0001) %MON dynstat_eta_mean             =  -2.3600832564712E-02
(PID.TID 0000.0001) %MON dynstat_eta_sd               =   2.3723856566328E-01
(PID.TID 0000.0001) %MON dynstat_eta_del2             =   2.3372158328024E-06
(PID.TID 0000.0001) %MON dynstat_uvel_max             =   1.2617715156604E+00
(PID.TID 0000.0001) %MON dynstat_uvel_min             =  -7.0214542288535E-01
(PID.TID 0000.0001) %MON dynstat_uvel_mean            =  -4.9246512828856E-04
(PID.TID 0000.0001) %MON dynstat_uvel_sd              =   5.2043993381719E-02
(PID.TID 0000.0001) %MON dynstat_uvel_del2            =   5.4660215453436E-07
(PID.TID 0000.0001) %MON dynstat_vvel_max             =   1.8721692530226E+00
(PID.TID 0000.0001) %MON dynstat_vvel_min             =  -9.1543436740879E-01
(PID.TID 0000.0001) %MON dynstat_vvel_mean            =  -1.0952066539065E-02
(PID.TID 0000.0001) %MON dynstat_vvel_sd              =   4.8531009299154E-02
(PID.TID 0000.0001) %MON dynstat_vvel_del2            =   5.0945842764902E-07
(PID.TID 0000.0001) %MON dynstat_wvel_max             =   3.9794815939515E-02
(PID.TID 0000.0001) %MON dynstat_wvel_min             =  -3.3091852912120E-02
(PID.TID 0000.0001) %MON dynstat_wvel_mean            =  -5.0036364186131E-07
(PID.TID 0000.0001) %MON dynstat_wvel_sd              =   6.1509367219217E-04
(PID.TID 0000.0001) %MON dynstat_wvel_del2            =   7.0311123837050E-08
(PID.TID 0000.0001) %MON dynstat_theta_max            =   2.6150291776309E+01
(PID.TID 0000.0001) %MON dynstat_theta_min            =   1.4688653973406E+00
(PID.TID 0000.0001) %MON dynstat_theta_mean           =   5.5098217770003E+00
(PID.TID 0000.0001) %MON dynstat_theta_sd             =   4.7732606925431E+00
(PID.TID 0000.0001) %MON dynstat_theta_del2           =   4.0114982931557E-06
(PID.TID 0000.0001) %MON dynstat_salt_max             =   3.9138982468086E+01
(PID.TID 0000.0001) %MON dynstat_salt_min             =   3.3102344637261E+01
(PID.TID 0000.0001) %MON dynstat_salt_mean            =   3.5173368606514E+01
(PID.TID 0000.0001) %MON dynstat_salt_sd              =   3.7891958202328E-01
(PID.TID 0000.0001) %MON dynstat_salt_del2            =   5.3363058892155E-07
(PID.TID 0000.0001) %MON forcing_qnet_max             =   1.2192764843845E+03
(PID.TID 0000.0001) %MON forcing_qnet_min             =  -3.0698739995228E+02
(PID.TID 0000.0001) %MON forcing_qnet_mean            =   2.4187138190311E+02
(PID.TID 0000.0001) %MON forcing_qnet_sd              =   1.4294515045456E+02
(PID.TID 0000.0001) %MON forcing_qnet_del2            =   1.6954174810810E-03
(PID.TID 0000.0001) %MON forcing_qsw_max              =   0.0000000000000E+00
(PID.TID 0000.0001) %MON forcing_qsw_min              =   0.0000000000000E+00
(PID.TID 0000.0001) %MON forcing_qsw_mean             =   0.0000000000000E+00
(PID.TID 0000.0001) %MON forcing_qsw_sd               =   0.0000000000000E+00
(PID.TID 0000.0001) %MON forcing_qsw_del2             =   0.0000000000000E+00
(PID.TID 0000.0001) %MON forcing_empmr_max            =   2.6127667674128E-04
(PID.TID 0000.0001) %MON forcing_empmr_min            =  -1.8312691912824E-03
(PID.TID 0000.0001) %MON forcing_empmr_mean           =   1.5943499273057E-05
(PID.TID 0000.0001) %MON forcing_empmr_sd             =   1.3331275949427E-04
(PID.TID 0000.0001) %MON forcing_empmr_del2           =   2.6148999513835E-09
(PID.TID 0000.0001) %MON forcing_fu_max               =   9.1800773238027E-01
(PID.TID 0000.0001) %MON forcing_fu_min               =  -3.9413019889253E-01
(PID.TID 0000.0001) %MON forcing_fu_mean              =   6.4410596359090E-02
(PID.TID 0000.0001) %MON forcing_fu_sd                =   1.5629762154600E-01
(PID.TID 0000.0001) %MON forcing_fu_del2              =   4.1236703076118E-07
(PID.TID 0000.0001) %MON forcing_fv_max               =   4.1024868173291E-01
(PID.TID 0000.0001) %MON forcing_fv_min               =  -5.7504110409476E-01
(PID.TID 0000.0001) %MON forcing_fv_mean              =   1.1289130157524E-02
(PID.TID 0000.0001) %MON forcing_fv_sd                =   1.0289167314620E-01
(PID.TID 0000.0001) %MON forcing_fv_del2              =   3.2697121760668E-07
(PID.TID 0000.0001) %MON trAdv_CFL_u_max              =   7.6552640451327E-02
(PID.TID 0000.0001) %MON trAdv_CFL_v_max              =   1.1872065190713E-01
(PID.TID 0000.0001) %MON trAdv_CFL_w_max              =   5.3224018889189E-01
(PID.TID 0000.0001) %MON advcfl_uvel_max              =   7.6552639408993E-02
(PID.TID 0000.0001) %MON advcfl_vvel_max              =   1.1875218039081E-01
(PID.TID 0000.0001) %MON advcfl_wvel_max              =   5.2909645066759E-01
(PID.TID 0000.0001) %MON advcfl_W_hf_max              =   5.3806418711959E-01
(PID.TID 0000.0001) %MON pe_b_mean                    =  -5.0686160684349E-04
(PID.TID 0000.0001) %MON ke_max                       =   1.7547792085898E+00
(PID.TID 0000.0001) %MON ke_mean                      =   2.5729974926633E-03
(PID.TID 0000.0001) %MON ke_vol                       =   4.5818637279721E+16
(PID.TID 0000.0001) %MON vort_r_min                   =  -5.6653058298140E-04
(PID.TID 0000.0001) %MON vort_r_max                   =   5.6750594418660E-04
(PID.TID 0000.0001) %MON vort_a_mean                  =   8.2147613508901E-05
(PID.TID 0000.0001) %MON vort_a_sd                    =   1.0157087018292E-05
(PID.TID 0000.0001) %MON vort_p_mean                  =   8.4848834503030E-05
(PID.TID 0000.0001) %MON vort_p_sd                    =   3.5033204124930E-05
(PID.TID 0000.0001) %MON surfExpan_theta_mean         =   1.8176475198599E-04
(PID.TID 0000.0001) %MON surfExpan_salt_mean          =   5.1972104953664E-05
(PID.TID 0000.0001) // =======================================================
(PID.TID 0000.0001) // End MONITOR dynamic field statistics
(PID.TID 0000.0001) // =======================================================
(PID.TID 0000.0001) // =======================================================
(PID.TID 0000.0001) // Begin OBCS MONITOR field statistics
(PID.TID 0000.0001) // =======================================================
(PID.TID 0000.0001) %MON obc_N_vVel_max               =   6.7809830030696E-01
(PID.TID 0000.0001) %MON obc_N_vVel_min               =  -6.8955471450211E-01
(PID.TID 0000.0001) %MON obc_N_vVel_mean              =  -7.0079052572339E-03
(PID.TID 0000.0001) %MON obc_N_vVel_sd                =   6.2828133272615E-02
(PID.TID 0000.0001) %MON obc_N_vVel_Int               =  -1.0031875566370E+08
(PID.TID 0000.0001) %MON obc_S_vVel_max               =   1.5984926395609E+00
(PID.TID 0000.0001) %MON obc_S_vVel_min               =  -2.5347249008844E-01
(PID.TID 0000.0001) %MON obc_S_vVel_mean              =  -2.8996324885484E-03
(PID.TID 0000.0001) %MON obc_S_vVel_sd                =   3.6974559314890E-02
(PID.TID 0000.0001) %MON obc_S_vVel_Int               =  -8.8273220937223E+07
(PID.TID 0000.0001) %MON obc_N_theta_max              =   1.6389539512358E+01
(PID.TID 0000.0001) %MON obc_N_theta_min              =   1.8895914629663E+00
(PID.TID 0000.0001) %MON obc_N_theta_mean             =   5.1588697396382E+00
(PID.TID 0000.0001) %MON obc_N_theta_sd               =   3.4825945703428E+00
(PID.TID 0000.0001) %MON obc_S_theta_max              =   2.5543400077115E+01
(PID.TID 0000.0001) %MON obc_S_theta_min              =   1.4633015851955E+00
(PID.TID 0000.0001) %MON obc_S_theta_mean             =   5.4595457048427E+00
(PID.TID 0000.0001) %MON obc_S_theta_sd               =   5.3558789690521E+00
(PID.TID 0000.0001) %MON obc_N_salt_max               =   3.5910861522510E+01
(PID.TID 0000.0001) %MON obc_N_salt_min               =   3.3295096609545E+01
(PID.TID 0000.0001) %MON obc_N_salt_mean              =   3.5114559876550E+01
(PID.TID 0000.0001) %MON obc_N_salt_sd                =   3.0984754111561E-01
(PID.TID 0000.0001) %MON obc_S_salt_max               =   3.7318243364860E+01
(PID.TID 0000.0001) %MON obc_S_salt_min               =   3.4844695097122E+01
(PID.TID 0000.0001) %MON obc_S_salt_mean              =   3.5168371860085E+01
(PID.TID 0000.0001) %MON obc_S_salt_sd                =   4.5716584207385E-01
(PID.TID 0000.0001) // =======================================================
(PID.TID 0000.0001) // End OBCS MONITOR field statistics
(PID.TID 0000.0001) // =======================================================
 Computing Diagnostic #     23  ETAN         Counter:      15   Parms: SM      M1      
