(PID.TID 0000.0001) 
(PID.TID 0000.0001) // ======================================================
(PID.TID 0000.0001) //                      MITgcm UV
(PID.TID 0000.0001) //                      =========
(PID.TID 0000.0001) // ======================================================
(PID.TID 0000.0001) // execution environment starting up...
(PID.TID 0000.0001) 
(PID.TID 0000.0001) // MITgcmUV version:  checkpoint67c
(PID.TID 0000.0001) // Build user:        dmenemen
(PID.TID 0000.0001) // Build host:        r15i6n12
(PID.TID 0000.0001) // Build date:        Fri Jul 27 03:41:11 PDT 2018
(PID.TID 0000.0001) 
(PID.TID 0000.0001) // =======================================================
(PID.TID 0000.0001) // Execution Environment parameter file "eedata"
(PID.TID 0000.0001) // =======================================================
(PID.TID 0000.0001) ># Example "eedata" file
(PID.TID 0000.0001) ># Lines beginning "#" are comments
(PID.TID 0000.0001) ># nTx - No. threads per process in X
(PID.TID 0000.0001) ># nTy - No. threads per process in Y
(PID.TID 0000.0001) > &EEPARMS
(PID.TID 0000.0001) > nTx=1,
(PID.TID 0000.0001) > nTy=1,
(PID.TID 0000.0001) ># debugMode=.TRUE.,
(PID.TID 0000.0001) > /
(PID.TID 0000.0001) ># Note: Some systems use & as the
(PID.TID 0000.0001) ># namelist terminator. Other systems
(PID.TID 0000.0001) ># use a / character (as shown here).
(PID.TID 0000.0001) 
(PID.TID 0000.0001) // =======================================================
(PID.TID 0000.0001) // Computational Grid Specification ( see files "SIZE.h" )
(PID.TID 0000.0001) //                                  ( and "eedata"       )
(PID.TID 0000.0001) // =======================================================
(PID.TID 0000.0001)      nPx =   24 ; /* No. processes in X */
(PID.TID 0000.0001)      nPy =    6 ; /* No. processes in Y */
(PID.TID 0000.0001)      nSx =    1 ; /* No. tiles in X per process */
(PID.TID 0000.0001)      nSy =    1 ; /* No. tiles in Y per process */
(PID.TID 0000.0001)      sNx =   90 ; /* Tile size in X */
(PID.TID 0000.0001)      sNy =   90 ; /* Tile size in Y */
(PID.TID 0000.0001)      OLx =    4 ; /* Tile overlap distance in X */
(PID.TID 0000.0001)      OLy =    4 ; /* Tile overlap distance in Y */
(PID.TID 0000.0001)      nTx =    1 ; /* No. threads in X per process */
(PID.TID 0000.0001)      nTy =    1 ; /* No. threads in Y per process */
(PID.TID 0000.0001)       Nr =  100 ; /* No. levels in the vertical   */
(PID.TID 0000.0001)       Nx = 2160 ; /* Total domain size in X ( = nPx*nSx*sNx ) */
(PID.TID 0000.0001)       Ny =  540 ; /* Total domain size in Y ( = nPy*nSy*sNy ) */
(PID.TID 0000.0001)   nTiles =    1 ; /* Total no. tiles per process ( = nSx*nSy ) */
(PID.TID 0000.0001)   nProcs =  144 ; /* Total no. processes ( = nPx*nPy ) */
(PID.TID 0000.0001) nThreads =    1 ; /* Total no. threads per process ( = nTx*nTy ) */
(PID.TID 0000.0001) usingMPI =    T ; /* Flag used to control whether MPI is in use */
(PID.TID 0000.0001)                   /*  note: To execute a program with MPI calls */
(PID.TID 0000.0001)                   /*  it must be launched appropriately e.g     */
(PID.TID 0000.0001)                   /*  "mpirun -np 64 ......"                    */
(PID.TID 0000.0001) useCoupler=    F ;/* Flag used to control communications with   */
(PID.TID 0000.0001)                   /*  other model components, through a coupler */
(PID.TID 0000.0001) debugMode =    F ; /* print debug msg. (sequence of S/R calls)  */
(PID.TID 0000.0001) printMapIncludesZeros=    F ; /* print zeros in Std.Output maps */
(PID.TID 0000.0001) maxLengthPrt1D=   65 /* maxLength of 1D array printed to StdOut */
(PID.TID 0000.0001) 
(PID.TID 0000.0001) ======= Starting MPI parallel Run =========
(PID.TID 0000.0001)  My Processor Name (len:  7 ) = r1i3n15
(PID.TID 0000.0001)  Located at (  0,  0) on processor grid (0: 23,0:  5)
(PID.TID 0000.0001)  Origin at  (     1,     1) on global grid (1:  2160,1:   540)
(PID.TID 0000.0001)  North neighbor = processor 0001
(PID.TID 0000.0001)  South neighbor = processor 0005
(PID.TID 0000.0001)   East neighbor = processor 0006
(PID.TID 0000.0001)   West neighbor = processor 0138
(PID.TID 0000.0001) // ======================================================
(PID.TID 0000.0001) // Mapping of tiles to threads
(PID.TID 0000.0001) // ======================================================
(PID.TID 0000.0001) // -o- Thread   1, tiles (   1:   1,   1:   1)
(PID.TID 0000.0001) 
(PID.TID 0000.0001) W2_READPARMS: opening data.exch2
(PID.TID 0000.0001)  OPEN_COPY_DATA_FILE: opening file data.exch2
(PID.TID 0000.0001) // =======================================================
(PID.TID 0000.0001) // Parameter file "data.exch2"
(PID.TID 0000.0001) // =======================================================
(PID.TID 0000.0001) ># EXCH2 Package: Wrapper-2 User Choice
(PID.TID 0000.0001) >#--------------------
(PID.TID 0000.0001) >#  preDefTopol   :: pre-defined Topology selector:
(PID.TID 0000.0001) >#                :: = 0 : topology defined from processing "data.exch2";
(PID.TID 0000.0001) >#                :: = 1 : simple, single facet topology;
(PID.TID 0000.0001) >#                :: = 2 : customized topology (w2_set_myown_facets)
(PID.TID 0000.0001) >#                :: = 3 : 6-facet Cube (3 face-dims: nRed, nGreen, nBlue).
(PID.TID 0000.0001) >#  dimsFacets    :: facet pair of dimensions (n1x,n1y, n2x,n2y ...)
(PID.TID 0000.0001) >#  facetEdgeLink :: Face-Edge connectivity map:
(PID.TID 0000.0001) >#    facetEdgeLink(i,j)=XX.1 : face(j)-edge(i) (i=1,2,3,4 <==> N,S,E,W)
(PID.TID 0000.0001) >#    is connected to Northern edge of face "XX" ; similarly,
(PID.TID 0000.0001) >#    = XX.2 : to Southern.E, XX.3 = Eastern.E, XX.4 = Western.E of face "XX"
(PID.TID 0000.0001) >#  blankList     :: List of "blank" tiles
(PID.TID 0000.0001) >#  W2_mapIO      :: global map IO selector (-1 = old type ; 0 = 1 long line in X
(PID.TID 0000.0001) >#                :: 1 = compact, mostly in Y dir)
(PID.TID 0000.0001) >#  W2_printMsg   :: option for information messages printing
(PID.TID 0000.0001) >#                :: <0 : write to log file ; =0 : minimum print ;
(PID.TID 0000.0001) >#                :: =1 : no duplicated print ; =2 : all processes do print
(PID.TID 0000.0001) >#--------------------
(PID.TID 0000.0001) > &W2_EXCH2_PARM01
(PID.TID 0000.0001) >  W2_printMsg= 0,
(PID.TID 0000.0001) >  W2_mapIO   = 1,
(PID.TID 0000.0001) >#
(PID.TID 0000.0001) >#-- 5 facets llc_270 topology (drop facet 6 and its connection):
(PID.TID 0000.0001) >  preDefTopol = 1,
(PID.TID 0000.0001) >  dimsFacets = 2160, 540,
(PID.TID 0000.0001) > &
(PID.TID 0000.0001) 
(PID.TID 0000.0001) W2_READPARMS: finished reading data.exch2
(PID.TID 0000.0001) W2_useE2ioLayOut=    T ;/* T: use Exch2 glob IO map; F: use model default */
(PID.TID 0000.0001) W2_mapIO        =   1 ; /* select option for Exch2 global-IO map */
(PID.TID 0000.0001) W2_printMsg     =   0 ; /* select option for printing information */
(PID.TID 0000.0001) ===== Start setting W2 TOPOLOGY:
(PID.TID 0000.0001) W2_E2SETUP: number of Active Tiles =     144
(PID.TID 0000.0001) W2_E2SETUP: number of Blank Tiles  =       0
(PID.TID 0000.0001) W2_E2SETUP: Total number of Tiles  =     144
(PID.TID 0000.0001) W2_SET_SINGLE_FACET: preDefTopol=  1 selected
(PID.TID 0000.0001) W2_E2SETUP: Total number of Facets =       1
(PID.TID 0000.0001) W2_SET_F2F_INDEX: index matrix for connected Facet-Edges:
(PID.TID 0000.0001) W2_SET_MAP_TILES: tile mapping within facet and global Map:
(PID.TID 0000.0001)  W2_mapIO = 2160 (=   24*sNx)
(PID.TID 0000.0001)  Global Map (IO): X-size=    2160 , Y-size=     540
(PID.TID 0000.0001) W2_SET_MAP_TILES: tile offset within facet and global Map:
- facet  1 : X-size=  2160 , Y-size=   540 ;  144 tiles (Tx,Ty=  24,   6)
(PID.TID 0000.0001) W2_SET_MAP_CUMSUM: setting Facet Matrix for CUMUL-SUM
 Facet Matrix for CUMUL-SUM (nFacets=   1, nActive=   1 ):
- facet  1 :  0  0 ,
(PID.TID 0000.0001) W2_SET_MAP_CUMSUM: done (skip Tile Matrix setting)
(PID.TID 0000.0001) W2_SET_TILE2TILES: tile neighbours and index connection:
(PID.TID 0000.0001) current Max.Nb.Neighbours (e.g., on tile    1 ) =  4
(PID.TID 0000.0001) ===== W2 TILE TOPOLOGY =====
(PID.TID 0000.0001)  TILE:     1 (bi,bj=   1   1 ), Nb of Neighbours =  4
(PID.TID 0000.0001)     NEIGHBOUR  1 = TILE   25 (n=  2) Comm = MSG (PROC=    2)
(PID.TID 0000.0001)     NEIGHBOUR  2 = TILE  121 (n=  1) Comm = MSG (PROC=    6)
(PID.TID 0000.0001)     NEIGHBOUR  3 = TILE    2 (n=  4) Comm = MSG (PROC=    7)
(PID.TID 0000.0001)     NEIGHBOUR  4 = TILE   24 (n=  3) Comm = MSG (PROC=  139)
(PID.TID 0000.0001) =====       setting W2 TOPOLOGY: Done
(PID.TID 0000.0001) 
(PID.TID 0000.0001)  INI_PARMS: opening model parameter file "data"
(PID.TID 0000.0001)  OPEN_COPY_DATA_FILE: opening file data
(PID.TID 0000.0001) // =======================================================
(PID.TID 0000.0001) // Parameter file "data"
(PID.TID 0000.0001) // =======================================================
(PID.TID 0000.0001) >### Data file with primary model parameters -----------------------------------
(PID.TID 0000.0001) >#
(PID.TID 0000.0001) >### Continuous equation parameters --------------------------------------------
(PID.TID 0000.0001) > &PARM01
(PID.TID 0000.0001) >## Reference temperatures and salinities for every vertical level.
(PID.TID 0000.0001) > tRef =  18.89, 18.89, 18.89, 18.89, 18.89, 18.87, 18.85, 18.82,
(PID.TID 0000.0001) >         18.80, 18.73, 18.63, 18.49, 18.28, 18.08, 17.86, 17.63,
(PID.TID 0000.0001) >         17.40, 17.18, 16.95, 16.73, 16.52, 16.31, 16.10, 15.89,
(PID.TID 0000.0001) >         15.69, 15.49, 15.28, 15.08, 14.88, 14.67, 14.47, 14.25,
(PID.TID 0000.0001) >         14.03, 13.80, 13.55, 13.29, 13.01, 12.73, 12.42, 12.11,
(PID.TID 0000.0001) >         11.78, 11.43, 11.07, 10.70, 10.31,  9.93,  9.53,  9.11,
(PID.TID 0000.0001) >          8.71,  8.29,  7.89,  7.51,  7.13,  6.78,  6.44,  6.11,
(PID.TID 0000.0001) >          5.81,  5.51,  5.23,  4.97,  4.73,  4.51,  4.30,  4.11,
(PID.TID 0000.0001) >          3.94,  3.78,  3.63,  3.50,  3.38,  3.25,  3.14,  3.04,
(PID.TID 0000.0001) >          2.94,  2.83,  2.74,  2.64,  2.54,  2.45,  2.36,  2.27,
(PID.TID 0000.0001) >          2.19,  2.10,  2.03,  1.95,  1.86,  1.78,  1.70,  1.63,
(PID.TID 0000.0001) >          1.55,  1.48,  1.41,  1.34,  1.27,  1.20,  1.13,  1.06,
(PID.TID 0000.0001) >          1.00,  0.96,  0.93,  0.91,
(PID.TID 0000.0001) > sRef =  34.84, 34.84, 34.84, 34.84, 34.84, 34.84, 34.85, 34.85,
(PID.TID 0000.0001) >         34.85, 34.86, 34.87, 34.88, 34.90, 34.91, 34.93, 34.95,
(PID.TID 0000.0001) >         34.96, 34.98, 34.99, 35.00, 35.01, 35.02, 35.03, 35.04,
(PID.TID 0000.0001) >         35.05, 35.06, 35.07, 35.07, 35.07, 35.07, 35.07, 35.07,
(PID.TID 0000.0001) >         35.07, 35.06, 35.05, 35.04, 35.03, 35.02, 35.01, 34.99,
(PID.TID 0000.0001) >         34.97, 34.95, 34.92, 34.90, 34.87, 34.84, 34.81, 34.78,
(PID.TID 0000.0001) >         34.75, 34.72, 34.69, 34.67, 34.65, 34.62, 34.61, 34.60,
(PID.TID 0000.0001) >         34.59, 34.59, 34.58, 34.59, 34.59, 34.60, 34.60, 34.61,
(PID.TID 0000.0001) >         34.62, 34.63, 34.64, 34.65, 34.66, 34.67, 34.67, 34.68,
(PID.TID 0000.0001) >         34.69, 34.70, 34.71, 34.71, 34.72, 34.72, 34.73, 34.73,
(PID.TID 0000.0001) >         34.73, 34.74, 34.74, 34.74, 34.74, 34.75, 34.74, 34.74,
(PID.TID 0000.0001) >         34.74, 34.74, 34.74, 34.74, 34.74, 34.74, 34.73, 34.73,
(PID.TID 0000.0001) >         34.73, 34.73, 34.73, 34.73,
(PID.TID 0000.0001) > rhonil        = 1029.,
(PID.TID 0000.0001) > rhoConstFresh = 1000.,
(PID.TID 0000.0001) > eosType = 'JMD95Z',
(PID.TID 0000.0001) >#
(PID.TID 0000.0001) >## Various prescriptions for viscosity and diffusivity.
(PID.TID 0000.0001) > viscAr     = 5.e-04,
(PID.TID 0000.0001) > viscA4Grid = 0.0,
(PID.TID 0000.0001) > diffKhT    = 0.E0,
(PID.TID 0000.0001) > diffKhS    = 0.E0,
(PID.TID 0000.0001) > diffK4T    = 0.E10,
(PID.TID 0000.0001) > diffK4S    = 0.E10,
(PID.TID 0000.0001) > diffKrT    = 1.0e-5,
(PID.TID 0000.0001) > diffKrS    = 1.0e-5,
(PID.TID 0000.0001) > bottomDragQuadratic = 0.002,
(PID.TID 0000.0001) > no_slip_sides     = .TRUE.,
(PID.TID 0000.0001) > no_slip_bottom    = .TRUE.,
(PID.TID 0000.0001) > implicitDiffusion = .TRUE.,
(PID.TID 0000.0001) > implicitViscosity = .TRUE.,
(PID.TID 0000.0001) ># horizontal momentum closure
(PID.TID 0000.0001) > viscC4Leith   = 2.0,
(PID.TID 0000.0001) > viscC4Leithd  = 2.0,
(PID.TID 0000.0001) > viscA4GridMax = 0.8,
(PID.TID 0000.0001) >#
(PID.TID 0000.0001) >## Parameters that control numerical methods like advection schemes and
(PID.TID 0000.0001) >#  treatment of the free-surface.
(PID.TID 0000.0001) > tempAdvScheme = 7,
(PID.TID 0000.0001) > saltAdvScheme = 7,
(PID.TID 0000.0001) > implicitFreeSurface     = .TRUE.,
(PID.TID 0000.0001) > staggerTimeStep         = .TRUE.,
(PID.TID 0000.0001) > exactConserv            = .TRUE.,
(PID.TID 0000.0001) > vectorInvariantMomentum = .TRUE.,
(PID.TID 0000.0001) > useAreaViscLength       = .TRUE.,
(PID.TID 0000.0001) > highOrderVorticity      = .TRUE.,
(PID.TID 0000.0001) > multiDimAdvection       = .TRUE.,
(PID.TID 0000.0001) >#
(PID.TID 0000.0001) >## These parameters seem to be associated with the external forcing.
(PID.TID 0000.0001) > convertFW2Salt = -1.,
(PID.TID 0000.0001) > temp_EvPrRn    =  0.,
(PID.TID 0000.0001) > useRealFreshWaterFlux = .FALSE.,
(PID.TID 0000.0001) > allowFreezing         = .FALSE.,
(PID.TID 0000.0001) >#
(PID.TID 0000.0001) >## Parameters associated with bathymetry specification.
(PID.TID 0000.0001) > hFacMin   = 0.2,
(PID.TID 0000.0001) > hFacMinDr = 5.,
(PID.TID 0000.0001) >#
(PID.TID 0000.0001) >## Parameters for reading, writing, and misc numerical details.
(PID.TID 0000.0001) > globalFiles     = .TRUE.,
(PID.TID 0000.0001) > useSingleCpuIO  = .TRUE.,
(PID.TID 0000.0001) > readBinaryPrec  = 32,
(PID.TID 0000.0001) > writeBinaryPrec = 32,
(PID.TID 0000.0001) > debuglevel      = 2,
(PID.TID 0000.0001) >#
(PID.TID 0000.0001) >## Unused parameters.
(PID.TID 0000.0001) ># gravity = 9.81,
(PID.TID 0000.0001) ># viscA4Grid = 2.0E-3,
(PID.TID 0000.0001) ># viscAhGrid = 2.5E-4,
(PID.TID 0000.0001) ># bottomDraglinear    = 1.E-3,
(PID.TID 0000.0001) ># Note: nonlinFreeSurf=1 with rStar=0 breaks the code.
(PID.TID 0000.0001) ># nonlinFreeSurf = 4,
(PID.TID 0000.0001) ># select_rStar   = 1,
(PID.TID 0000.0001) ># hFacInf   = 0.1,
(PID.TID 0000.0001) ># hFacSup   = 5.,
(PID.TID 0000.0001) ># implicSurfPress = 0.6,
(PID.TID 0000.0001) ># implicDiv2DFlow = 0.6,
(PID.TID 0000.0001) ># useSingleCpuInput = .TRUE.,
(PID.TID 0000.0001) ># set to eccov4, make sure minbathy=20m first
(PID.TID 0000.0001) ># debuglevel = -1,
(PID.TID 0000.0001) ># useJamartWetPoints = .TRUE.,
(PID.TID 0000.0001) ># writeBinaryPrec=64,
(PID.TID 0000.0001) > /
(PID.TID 0000.0001) >### Elliptic solver parameters ------------------------------------------------
(PID.TID 0000.0001) > &PARM02
(PID.TID 0000.0001) > cg2dMaxIters       = 1000,
(PID.TID 0000.0001) ># cg2dTargetResidual = 1.E-8,
(PID.TID 0000.0001) > cg2dTargetResWunit = 1e-18,
(PID.TID 0000.0001) >#
(PID.TID 0000.0001) >#cg2dMaxIters       = 100,
(PID.TID 0000.0001) >#cg2dTargetResidual = 1.E-5,
(PID.TID 0000.0001) > &
(PID.TID 0000.0001) >### Time stepping parameters --------------------------------------------------
(PID.TID 0000.0001) > &PARM03
(PID.TID 0000.0001) > deltaT      =    240.,
(PID.TID 0000.0001) > nIter0      =  0,
(PID.TID 0000.0001) > nTimeSteps  =  15,
(PID.TID 0000.0001) > pChkptFreq  = 864000.,
(PID.TID 0000.0001) > monitorFreq =   240.,
(PID.TID 0000.0001) > abEps       = 0.1,
(PID.TID 0000.0001) >## It is unclear what these specify.
(PID.TID 0000.0001) > pickupStrictlyMatch = .FALSE.,
(PID.TID 0000.0001) > forcing_In_AB       = .FALSE.,
(PID.TID 0000.0001) > momDissip_In_AB     = .FALSE.,
(PID.TID 0000.0001) > dumpInitAndLast     = .FALSE.,
(PID.TID 0000.0001) > /
(PID.TID 0000.0001) >### Gridding parameters -------------------------------------------------------
(PID.TID 0000.0001) > &PARM04
(PID.TID 0000.0001) > usingSphericalPolarGrid=.TRUE.,
(PID.TID 0000.0001) >## Specify the height of each vertical level.
(PID.TID 0000.0001) > delR =   5.00,   5.00,   5.00,   5.00,   5.00,   5.00,   5.00,   5.00,   5.00,
(PID.TID 0000.0001) >          5.00,   5.00,   5.00,   5.00,   5.00,   5.00,   5.01,   5.01,   5.02,
(PID.TID 0000.0001) >          5.04,   5.07,   5.12,   5.20,   5.31,   5.49,   5.72,   6.04,   6.45,
(PID.TID 0000.0001) >          6.97,   7.62,   8.42,   9.36,  10.46,  11.72,  13.13,  14.70,  16.40,
(PID.TID 0000.0001) >         18.24,  20.18,  22.21,  24.29,  26.43,  28.57,  30.71,  32.79,  34.82,
(PID.TID 0000.0001) >         36.76,  38.60,  40.30,  41.87,  43.28,  44.54,  45.64,  46.58,  47.38,
(PID.TID 0000.0001) >         48.03,  48.55,  48.96,  49.29,  49.53,  49.72,  49.90,  50.11,  50.41,
(PID.TID 0000.0001) >         50.92,  51.69,  52.87,  54.54,  56.79,  59.67,  63.16,  67.26,  71.83,
(PID.TID 0000.0001) >         76.83,  82.11,  87.61,  93.22,  98.91, 104.64, 110.38, 116.12, 121.87,
(PID.TID 0000.0001) >        127.63, 133.38, 139.12, 144.87, 150.63, 156.38, 162.12, 167.87, 173.63,
(PID.TID 0000.0001) >        179.38, 185.12, 190.87, 196.63, 202.38, 208.12, 213.87, 219.63, 225.38,
(PID.TID 0000.0001) >        231.12,
(PID.TID 0000.0001) > xgOrigin=-83.,
(PID.TID 0000.0001) > dxSpacing=0.041666666666667,
(PID.TID 0000.0001) > ygOrigin=26.650054931640625,
(PID.TID 0000.0001) > delYFile = 'delYFile',
(PID.TID 0000.0001) > /
(PID.TID 0000.0001) ># -----------------------------------------------------------------------------
(PID.TID 0000.0001) >### Bathymetry files and initial condition files
(PID.TID 0000.0001) > &PARM05
(PID.TID 0000.0001) > bathyFile       = 'bathy.bin',
(PID.TID 0000.0001) > hydrogThetaFile = 'T0_2160x540x100.bin',
(PID.TID 0000.0001) > hydrogSaltFile  = 'S0_2160x540x100.bin',
(PID.TID 0000.0001) > uVelInitFile    = 'U0_2160x540x100.bin',
(PID.TID 0000.0001) > vVelInitFile    = 'V0_2160x540x100.bin',
(PID.TID 0000.0001) ># diffKrFile  = 'diffkr_basin_v1m9EfC_llc1080.bin',
(PID.TID 0000.0001) ># viscA4Dfile = 'visc3DblendfromrunobcsCdiv1e6_08Mar2016_aste2160.bin',
(PID.TID 0000.0001) ># viscA4Zfile = 'visc3DblendfromrunobcsCdiv1e6_08Mar2016_aste2160.bin',
(PID.TID 0000.0001) > /
(PID.TID 0000.0001) 
(PID.TID 0000.0001)  INI_PARMS ; starts to read PARM01
(PID.TID 0000.0001)  INI_PARMS ; read PARM01 : OK
(PID.TID 0000.0001)  INI_PARMS ; starts to read PARM02
(PID.TID 0000.0001)  INI_PARMS ; read PARM02 : OK
(PID.TID 0000.0001)  INI_PARMS ; starts to read PARM03
(PID.TID 0000.0001)  INI_PARMS ; read PARM03 : OK
(PID.TID 0000.0001)  INI_PARMS ; starts to read PARM04
(PID.TID 0000.0001)  INI_PARMS ; read PARM04 : OK
(PID.TID 0000.0001)  INI_PARMS ; starts to read PARM05
(PID.TID 0000.0001)  INI_PARMS ; read PARM05 : OK
(PID.TID 0000.0001)  INI_PARMS: finished reading file "data"
(PID.TID 0000.0001)  PACKAGES_BOOT: opening data.pkg
(PID.TID 0000.0001)  OPEN_COPY_DATA_FILE: opening file data.pkg
(PID.TID 0000.0001) // =======================================================
(PID.TID 0000.0001) // Parameter file "data.pkg"
(PID.TID 0000.0001) // =======================================================
(PID.TID 0000.0001) ># Packages
(PID.TID 0000.0001) > &PACKAGES
(PID.TID 0000.0001) > useCAL         = .TRUE.,
(PID.TID 0000.0001) > useEXF         = .TRUE.,
(PID.TID 0000.0001) > useKPP         = .TRUE.,
(PID.TID 0000.0001) > useDiagnostics = .TRUE.,
(PID.TID 0000.0001) > useOBCS        = .TRUE.,
(PID.TID 0000.0001) ># useProfiles=.TRUE.,
(PID.TID 0000.0001) > /
(PID.TID 0000.0001) 
(PID.TID 0000.0001)  PACKAGES_BOOT: finished reading data.pkg
(PID.TID 0000.0001)  PACKAGES_BOOT: On/Off package Summary
 --------  pkgs with a standard "usePKG" On/Off switch in "data.pkg":  --------
 pkg/obcs                 compiled   and   used ( useOBCS                  = T )
 pkg/kpp                  compiled   and   used ( useKPP                   = T )
 pkg/cal                  compiled   and   used ( useCAL                   = T )
 pkg/exf                  compiled   and   used ( useEXF                   = T )
 pkg/diagnostics          compiled   and   used ( useDiagnostics           = T )
 -------- pkgs without standard "usePKG" On/Off switch in "data.pkg":  --------
 pkg/generic_advdiff      compiled   and   used ( useGAD                   = T )
 pkg/mom_common           compiled   and   used ( momStepping              = T )
 pkg/mom_vecinv           compiled   and   used ( +vectorInvariantMomentum = T )
 pkg/monitor              compiled   and   used ( monitorFreq > 0.         = T )
 pkg/debug                compiled but not used ( debugMode                = F )
 pkg/exch2                compiled   and   used
 pkg/rw                   compiled   and   used
 pkg/mdsio                compiled   and   used
(PID.TID 0000.0001)  PACKAGES_BOOT: End of package Summary
(PID.TID 0000.0001) 
(PID.TID 0000.0001) CAL_READPARMS: opening data.cal
(PID.TID 0000.0001)  OPEN_COPY_DATA_FILE: opening file data.cal
(PID.TID 0000.0001) // =======================================================
(PID.TID 0000.0001) // Parameter file "data.cal"
(PID.TID 0000.0001) // =======================================================
(PID.TID 0000.0001) >#
(PID.TID 0000.0001) ># *******************
(PID.TID 0000.0001) ># Calendar Parameters
(PID.TID 0000.0001) ># *******************
(PID.TID 0000.0001) > &CAL_NML
(PID.TID 0000.0001) > TheCalendar='gregorian',
(PID.TID 0000.0001) > startDate_1=20080101,
(PID.TID 0000.0001) > startDate_2=000000,
(PID.TID 0000.0001) > calendarDumps = .TRUE.,
(PID.TID 0000.0001) > &
(PID.TID 0000.0001) 
(PID.TID 0000.0001) CAL_READPARMS: finished reading data.cal
(PID.TID 0000.0001) EXF_READPARMS: opening data.exf
(PID.TID 0000.0001)  OPEN_COPY_DATA_FILE: opening file data.exf
(PID.TID 0000.0001) // =======================================================
(PID.TID 0000.0001) // Parameter file "data.exf"
(PID.TID 0000.0001) // =======================================================
(PID.TID 0000.0001) ># *********************
(PID.TID 0000.0001) ># External Forcing Data
(PID.TID 0000.0001) ># *********************
(PID.TID 0000.0001) >#
(PID.TID 0000.0001) > &EXF_NML_01
(PID.TID 0000.0001) >#
(PID.TID 0000.0001) > useAtmWind        = .TRUE.,
(PID.TID 0000.0001) >#
(PID.TID 0000.0001) >#TO COMBINE WITH ALLOW_ZENITH_ANGLE:
(PID.TID 0000.0001) > exf_albedo        = 0.1,
(PID.TID 0000.0001) > useExfZenIncoming = .TRUE.,
(PID.TID 0000.0001) > select_ZenAlbedo  = 1,
(PID.TID 0000.0001) >#
(PID.TID 0000.0001) > ocean_emissivity  = 0.97,
(PID.TID 0000.0001) > ice_emissivity    = 0.95,
(PID.TID 0000.0001) > snow_emissivity   = 0.95,
(PID.TID 0000.0001) > exf_iprec         = 32,
(PID.TID 0000.0001) > exf_iprec_obcs    = 32,
(PID.TID 0000.0001) > exf_yftype        = 'RL',
(PID.TID 0000.0001) > useExfYearlyFields= .TRUE.,
(PID.TID 0000.0001) > useExfCheckRange  = .FALSE.,
(PID.TID 0000.0001) > useRelativeWind   = .TRUE.,
(PID.TID 0000.0001) > &
(PID.TID 0000.0001) >#
(PID.TID 0000.0001) > &EXF_NML_02
(PID.TID 0000.0001) > apressurefile     = 'era5/ERA5_pres',
(PID.TID 0000.0001) > atempfile         = 'era5/ERA5_tmp2m_degC',
(PID.TID 0000.0001) > aqhfile           = 'era5/ERA5_spfh2m',
(PID.TID 0000.0001) > precipfile        = 'era5/ERA5_rain',
(PID.TID 0000.0001) > uwindfile         = 'era5/ERA5_u10m',
(PID.TID 0000.0001) > vwindfile         = 'era5/ERA5_v10m',
(PID.TID 0000.0001) > swdownfile        = 'era5/ERA5_dsw',
(PID.TID 0000.0001) > lwdownfile        = 'era5/ERA5_dlw',
(PID.TID 0000.0001) > tidePotfile       = 'tide_IAU_EARTH',
(PID.TID 0000.0001) > runofffile        = 'runoff1p2472-360x180x12.bin',
(PID.TID 0000.0001) >#
(PID.TID 0000.0001) > apressurestartdate1 = 19920101,
(PID.TID 0000.0001) > apressurestartdate2 = 000000,
(PID.TID 0000.0001) > apressureperiod   = 3600.0,
(PID.TID 0000.0001) >#
(PID.TID 0000.0001) > atempstartdate1   = 19920101,
(PID.TID 0000.0001) > atempstartdate2   = 000000,
(PID.TID 0000.0001) > atempperiod       = 3600.0,
(PID.TID 0000.0001) >#
(PID.TID 0000.0001) > aqhstartdate1     = 19920101,
(PID.TID 0000.0001) > aqhstartdate2     = 000000,
(PID.TID 0000.0001) > aqhperiod         = 3600.0,
(PID.TID 0000.0001) >#
(PID.TID 0000.0001) > precipstartdate1  = 19920101,
(PID.TID 0000.0001) > precipstartdate2  = 003000,
(PID.TID 0000.0001) > precipperiod      = 3600.0,
(PID.TID 0000.0001) >#
(PID.TID 0000.0001) > uwindstartdate1   = 19920101,
(PID.TID 0000.0001) > uwindstartdate2   = 000000,
(PID.TID 0000.0001) > uwindperiod       = 3600.0,
(PID.TID 0000.0001) >#
(PID.TID 0000.0001) > vwindstartdate1   = 19920101,
(PID.TID 0000.0001) > vwindstartdate2   = 000000,
(PID.TID 0000.0001) > vwindperiod       = 3600.0,
(PID.TID 0000.0001) >#
(PID.TID 0000.0001) > swdownstartdate1  = 19920101,
(PID.TID 0000.0001) > swdownstartdate2  = 003000,
(PID.TID 0000.0001) > swdownperiod      = 3600.0,
(PID.TID 0000.0001) >#
(PID.TID 0000.0001) > lwdownstartdate1  = 19920101,
(PID.TID 0000.0001) > lwdownstartdate2  = 003000,
(PID.TID 0000.0001) > lwdownperiod      = 3600.0,
(PID.TID 0000.0001) > tidePotstartdate1  = 19790101,
(PID.TID 0000.0001) > tidePotstartdate2  = 000000,
(PID.TID 0000.0001) > tidePotperiod      = 3600.0,
(PID.TID 0000.0001) ># "*period=-12" specifies monthly-mean forcing
(PID.TID 0000.0001) > runoffperiod      = -12,
(PID.TID 0000.0001) > &
(PID.TID 0000.0001) >#
(PID.TID 0000.0001) > &EXF_NML_03
(PID.TID 0000.0001) > exf_offset_atemp   = 273.15,
(PID.TID 0000.0001) > exf_inscal_swdown  = -1.0,
(PID.TID 0000.0001) > exf_inscal_lwdown  = -1.0,
(PID.TID 0000.0001) ># 1/365/24/3600 yr/s conversion, runoff [m/yr --> m/s]
(PID.TID 0000.0001) > exf_inscal_runoff = 3.1710e-08,
(PID.TID 0000.0001) > &
(PID.TID 0000.0001) >#
(PID.TID 0000.0001) > &EXF_NML_04
(PID.TID 0000.0001) ># runoff_interpMethod = 0,
(PID.TID 0000.0001) >#
(PID.TID 0000.0001) > apressure_lon0    =   0.0000000D0,
(PID.TID 0000.0001) > apressure_lon_inc =   0.2812500D0,
(PID.TID 0000.0001) > apressure_lat0    = -89.7848850D0,
(PID.TID 0000.0001) > apressure_lat_inc = 0.2786766D0,0.2803199D0,0.2806917D0,0.2808328D0,0.2809011D0,0.2809392D0,0.2809626D0,0.2809781D0,
(PID.TID 0000.0001) >                     0.2809888D0,0.2809965D0,0.2810023D0,0.2810067D0,0.2810102D0,0.2810129D0,0.2810151D0,
(PID.TID 0000.0001) >                     33*0.2810258D0,543*0.2810302D0,33*0.2810258D0,
(PID.TID 0000.0001) >                     0.2810151D0,0.2810129D0,0.2810102D0,0.2810067D0,0.2810023D0,0.2809965D0,0.2809888D0,0.2809781D0,
(PID.TID 0000.0001) >                     0.2809626D0,0.2809392D0,0.2809011D0,0.2808328D0,0.2806917D0,0.2803199D0,0.2786766D0,
(PID.TID 0000.0001) > apressure_nlon    = 1280,
(PID.TID 0000.0001) > apressure_nlat    = 640,
(PID.TID 0000.0001) >#
(PID.TID 0000.0001) > atemp_lon0        =   0.0000000D0,
(PID.TID 0000.0001) > atemp_lon_inc     =   0.2812500D0,
(PID.TID 0000.0001) > atemp_lat0        = -89.7848850D0,
(PID.TID 0000.0001) > atemp_lat_inc     = 0.2786766D0,0.2803199D0,0.2806917D0,0.2808328D0,0.2809011D0,0.2809392D0,0.2809626D0,0.2809781D0,
(PID.TID 0000.0001) >                     0.2809888D0,0.2809965D0,0.2810023D0,0.2810067D0,0.2810102D0,0.2810129D0,0.2810151D0,
(PID.TID 0000.0001) >                     33*0.2810258D0,543*0.2810302D0,33*0.2810258D0,
(PID.TID 0000.0001) >                     0.2810151D0,0.2810129D0,0.2810102D0,0.2810067D0,0.2810023D0,0.2809965D0,0.2809888D0,0.2809781D0,
(PID.TID 0000.0001) >                     0.2809626D0,0.2809392D0,0.2809011D0,0.2808328D0,0.2806917D0,0.2803199D0,0.2786766D0,
(PID.TID 0000.0001) > atemp_nlon        = 1280,
(PID.TID 0000.0001) > atemp_nlat        = 640,
(PID.TID 0000.0001) >#
(PID.TID 0000.0001) > aqh_lon0        =   0.0000000D0,
(PID.TID 0000.0001) > aqh_lon_inc     =   0.2812500D0,
(PID.TID 0000.0001) > aqh_lat0        = -89.7848850D0,
(PID.TID 0000.0001) > aqh_lat_inc     = 0.2786766D0,0.2803199D0,0.2806917D0,0.2808328D0,0.2809011D0,0.2809392D0,0.2809626D0,0.2809781D0,
(PID.TID 0000.0001) >                     0.2809888D0,0.2809965D0,0.2810023D0,0.2810067D0,0.2810102D0,0.2810129D0,0.2810151D0,
(PID.TID 0000.0001) >                     33*0.2810258D0,543*0.2810302D0,33*0.2810258D0,
(PID.TID 0000.0001) >                     0.2810151D0,0.2810129D0,0.2810102D0,0.2810067D0,0.2810023D0,0.2809965D0,0.2809888D0,0.2809781D0,
(PID.TID 0000.0001) >                     0.2809626D0,0.2809392D0,0.2809011D0,0.2808328D0,0.2806917D0,0.2803199D0,0.2786766D0,
(PID.TID 0000.0001) > aqh_nlon        = 1280,
(PID.TID 0000.0001) > aqh_nlat        = 640,
(PID.TID 0000.0001) >#
(PID.TID 0000.0001) > precip_lon0        =   0.0000000D0,
(PID.TID 0000.0001) > precip_lon_inc     =   0.2812500D0,
(PID.TID 0000.0001) > precip_lat0        = -89.7848850D0,
(PID.TID 0000.0001) > precip_lat_inc     = 0.2786766D0,0.2803199D0,0.2806917D0,0.2808328D0,0.2809011D0,0.2809392D0,0.2809626D0,0.2809781D0,
(PID.TID 0000.0001) >                     0.2809888D0,0.2809965D0,0.2810023D0,0.2810067D0,0.2810102D0,0.2810129D0,0.2810151D0,
(PID.TID 0000.0001) >                     33*0.2810258D0,543*0.2810302D0,33*0.2810258D0,
(PID.TID 0000.0001) >                     0.2810151D0,0.2810129D0,0.2810102D0,0.2810067D0,0.2810023D0,0.2809965D0,0.2809888D0,0.2809781D0,
(PID.TID 0000.0001) >                     0.2809626D0,0.2809392D0,0.2809011D0,0.2808328D0,0.2806917D0,0.2803199D0,0.2786766D0,
(PID.TID 0000.0001) > precip_nlon        = 1280,
(PID.TID 0000.0001) > precip_nlat        = 640,
(PID.TID 0000.0001) >#
(PID.TID 0000.0001) > uwind_lon0        =   0.0000000D0,
(PID.TID 0000.0001) > uwind_lon_inc     =   0.2812500D0,
(PID.TID 0000.0001) > uwind_lat0        = -89.7848850D0,
(PID.TID 0000.0001) > uwind_lat_inc     = 0.2786766D0,0.2803199D0,0.2806917D0,0.2808328D0,0.2809011D0,0.2809392D0,0.2809626D0,0.2809781D0,
(PID.TID 0000.0001) >                     0.2809888D0,0.2809965D0,0.2810023D0,0.2810067D0,0.2810102D0,0.2810129D0,0.2810151D0,
(PID.TID 0000.0001) >                     33*0.2810258D0,543*0.2810302D0,33*0.2810258D0,
(PID.TID 0000.0001) >                     0.2810151D0,0.2810129D0,0.2810102D0,0.2810067D0,0.2810023D0,0.2809965D0,0.2809888D0,0.2809781D0,
(PID.TID 0000.0001) >                     0.2809626D0,0.2809392D0,0.2809011D0,0.2808328D0,0.2806917D0,0.2803199D0,0.2786766D0,
(PID.TID 0000.0001) > uwind_nlon        = 1280,
(PID.TID 0000.0001) > uwind_nlat        = 640,
(PID.TID 0000.0001) >#
(PID.TID 0000.0001) > vwind_lon0        =   0.0000000D0,
(PID.TID 0000.0001) > vwind_lon_inc     =   0.2812500D0,
(PID.TID 0000.0001) > vwind_lat0        = -89.7848850D0,
(PID.TID 0000.0001) > vwind_lat_inc     = 0.2786766D0,0.2803199D0,0.2806917D0,0.2808328D0,0.2809011D0,0.2809392D0,0.2809626D0,0.2809781D0,
(PID.TID 0000.0001) >                     0.2809888D0,0.2809965D0,0.2810023D0,0.2810067D0,0.2810102D0,0.2810129D0,0.2810151D0,
(PID.TID 0000.0001) >                     33*0.2810258D0,543*0.2810302D0,33*0.2810258D0,
(PID.TID 0000.0001) >                     0.2810151D0,0.2810129D0,0.2810102D0,0.2810067D0,0.2810023D0,0.2809965D0,0.2809888D0,0.2809781D0,
(PID.TID 0000.0001) >                     0.2809626D0,0.2809392D0,0.2809011D0,0.2808328D0,0.2806917D0,0.2803199D0,0.2786766D0,
(PID.TID 0000.0001) > vwind_nlon        = 1280,
(PID.TID 0000.0001) > vwind_nlat        = 640,
(PID.TID 0000.0001) >#
(PID.TID 0000.0001) > swdown_lon0        =   0.0000000D0,
(PID.TID 0000.0001) > swdown_lon_inc     =   0.2812500D0,
(PID.TID 0000.0001) > swdown_lat0        = -89.7848850D0,
(PID.TID 0000.0001) > swdown_lat_inc     = 0.2786766D0,0.2803199D0,0.2806917D0,0.2808328D0,0.2809011D0,0.2809392D0,0.2809626D0,0.2809781D0,
(PID.TID 0000.0001) >                     0.2809888D0,0.2809965D0,0.2810023D0,0.2810067D0,0.2810102D0,0.2810129D0,0.2810151D0,
(PID.TID 0000.0001) >                     33*0.2810258D0,543*0.2810302D0,33*0.2810258D0,
(PID.TID 0000.0001) >                     0.2810151D0,0.2810129D0,0.2810102D0,0.2810067D0,0.2810023D0,0.2809965D0,0.2809888D0,0.2809781D0,
(PID.TID 0000.0001) >                     0.2809626D0,0.2809392D0,0.2809011D0,0.2808328D0,0.2806917D0,0.2803199D0,0.2786766D0,
(PID.TID 0000.0001) > swdown_nlon        = 1280,
(PID.TID 0000.0001) > swdown_nlat        = 640,
(PID.TID 0000.0001) >#
(PID.TID 0000.0001) > lwdown_lon0        =   0.0000000D0,
(PID.TID 0000.0001) > lwdown_lon_inc     =   0.2812500D0,
(PID.TID 0000.0001) > lwdown_lat0        = -89.7848850D0,
(PID.TID 0000.0001) > lwdown_lat_inc     = 0.2786766D0,0.2803199D0,0.2806917D0,0.2808328D0,0.2809011D0,0.2809392D0,0.2809626D0,0.2809781D0,
(PID.TID 0000.0001) >                     0.2809888D0,0.2809965D0,0.2810023D0,0.2810067D0,0.2810102D0,0.2810129D0,0.2810151D0,
(PID.TID 0000.0001) >                     33*0.2810258D0,543*0.2810302D0,33*0.2810258D0,
(PID.TID 0000.0001) >                     0.2810151D0,0.2810129D0,0.2810102D0,0.2810067D0,0.2810023D0,0.2809965D0,0.2809888D0,0.2809781D0,
(PID.TID 0000.0001) >                     0.2809626D0,0.2809392D0,0.2809011D0,0.2808328D0,0.2806917D0,0.2803199D0,0.2786766D0,
(PID.TID 0000.0001) > lwdown_nlon        = 1280,
(PID.TID 0000.0001) > lwdown_nlat        = 640,
(PID.TID 0000.0001) >#
(PID.TID 0000.0001) > tidePot_lon0       = 0.0D0,
(PID.TID 0000.0001) > tidePot_lon_inc    = 1.0D0,
(PID.TID 0000.0001) > tidePot_lat0       = -90.0D0,
(PID.TID 0000.0001) > tidePot_lat_inc    = 180*1.0D0,
(PID.TID 0000.0001) > tidePot_nlon       = 360,
(PID.TID 0000.0001) > tidePot_nlat       = 181,
(PID.TID 0000.0001) >#
(PID.TID 0000.0001) > runoff_lon0       = 0.50D0,
(PID.TID 0000.0001) > runoff_lon_inc    = 1.0D0,
(PID.TID 0000.0001) > runoff_lat0       = -89.5D0,
(PID.TID 0000.0001) > runoff_lat_inc    = 179*1.,
(PID.TID 0000.0001) > runoff_nlon       = 360,
(PID.TID 0000.0001) > runoff_nlat       = 180,
(PID.TID 0000.0001) > &
(PID.TID 0000.0001) >#
(PID.TID 0000.0001) > &EXF_NML_OBCS
(PID.TID 0000.0001) >  obcsSstartdate1   = 20071215,
(PID.TID 0000.0001) >  obcsSstartdate2   = 060000,
(PID.TID 0000.0001) >  obcsSperiod       = 2629800.0,
(PID.TID 0000.0001) >#
(PID.TID 0000.0001) >  obcsNstartdate1   = 20071215,
(PID.TID 0000.0001) >  obcsNstartdate2   = 060000,
(PID.TID 0000.0001) >  obcsNperiod       = 2629800.0,
(PID.TID 0000.0001) > &
(PID.TID 0000.0001) 
(PID.TID 0000.0001) EXF_READPARMS: reading EXF_NML_01
(PID.TID 0000.0001) EXF_READPARMS: reading EXF_NML_02
(PID.TID 0000.0001) EXF_READPARMS: reading EXF_NML_03
(PID.TID 0000.0001) EXF_READPARMS: reading EXF_NML_04
(PID.TID 0000.0001) EXF_READPARMS: reading EXF_NML_OBCS
(PID.TID 0000.0001) EXF_READPARMS: finished reading data.exf
(PID.TID 0000.0001)  OBCS_READPARMS: opening data.obcs
(PID.TID 0000.0001)  OPEN_COPY_DATA_FILE: opening file data.obcs
(PID.TID 0000.0001) // =======================================================
(PID.TID 0000.0001) // Parameter file "data.obcs"
(PID.TID 0000.0001) // =======================================================
(PID.TID 0000.0001) ># ***************
(PID.TID 0000.0001) ># Open boundaries
(PID.TID 0000.0001) ># ***************
(PID.TID 0000.0001) > &OBCS_PARM01
(PID.TID 0000.0001) >OB_Jnorth = 2160*537,
(PID.TID 0000.0001) >OB_Jsouth = 2160*8,
(PID.TID 0000.0001) >#
(PID.TID 0000.0001) > useOBCSprescribe=.TRUE.,
(PID.TID 0000.0001) ># useOBCSsponge=.true.,
(PID.TID 0000.0001) > OBCS_monSelect = 3,
(PID.TID 0000.0001) ># >0: use 1rst O. upwind adv-scheme @ OB (=1: only if outflow)
(PID.TID 0000.0001) > OBCS_u1_adv_T = 1,
(PID.TID 0000.0001) > OBCS_u1_adv_S = 1,
(PID.TID 0000.0001) >#
(PID.TID 0000.0001) > OBSsFile='OBSs_2160x100x26.bin',
(PID.TID 0000.0001) > OBStFile='OBSt_2160x100x26.bin',
(PID.TID 0000.0001) > OBSuFile='OBSu_2160x100x26.bin',
(PID.TID 0000.0001) > OBSvFile='OBSv_2160x100x26.bin',
(PID.TID 0000.0001) >#
(PID.TID 0000.0001) > OBNsFile='OBNs_2160x100x26.bin',
(PID.TID 0000.0001) > OBNtFile='OBNt_2160x100x26.bin',
(PID.TID 0000.0001) > OBNuFile='OBNu_2160x100x26.bin',
(PID.TID 0000.0001) > OBNvFile='OBNv_2160x100x26.bin',
(PID.TID 0000.0001) ># Balancing
(PID.TID 0000.0001) > useOBCSbalance = .TRUE.,
(PID.TID 0000.0001) > OBCS_balanceFacN = -1,
(PID.TID 0000.0001) > OBCS_balanceFacS = -1,
(PID.TID 0000.0001) >## *****************************************
(PID.TID 0000.0001) >## Tidal BC parameters
(PID.TID 0000.0001) >## *****************************************
(PID.TID 0000.0001) > useOBCStides = .TRUE.,
(PID.TID 0000.0001) >##components   = M2       S2     N2       K2       K1      O1       P1       Q1       Mf         Mm
(PID.TID 0000.0001) >##periods (hr) = 12.4206  12     12.6583  11.9672  23.9345 25.8193  24.0659  26.8684  327.8599   661.31
(PID.TID 0000.0001) >##period(sec)  = 44714.165 43200.001 45570.054 43082.05 86164.077 92949.636 86637.2 96726.086 1180295.5 2380715.9
(PID.TID 0000.0001) >##components      m2        s2        n2        k2        k1        o1        p1        q1        mf        mm        m4        ms4       mn4
(PID.TID 0000.0001) >##period (hr): 12.420601 12.000000 12.658348 11.967236 23.934466 25.819343 24.065889 26.868357 327.859874 661.309962 6.210303 6.103339 6.269178
(PID.TID 0000.0001) >##period (s):  44714.165192 43200.001287 45570.053512 43082.050319 86164.077005 92949.635701 86637.199772 96726.085703 1180295.545550 2380715.863587 22357.090551 21972.021930 22569.042448
(PID.TID 0000.0001) > tidalPeriod  = 44714.165 43200.001 45570.054 43082.050 86164.077 92949.636 86637.200 96726.086 1180295.546 2380715.864 22357.091 21972.022 22569.042,
(PID.TID 0000.0001) > OBSamFile='OBSam_2160x13.bin',
(PID.TID 0000.0001) > OBNamFile='OBNam_2160x13.bin',
(PID.TID 0000.0001) > OBSphFile='OBSph_2160x13.bin',
(PID.TID 0000.0001) > OBNphFile='OBNph_2160x13.bin',
(PID.TID 0000.0001) > &
(PID.TID 0000.0001) ># *****************************************
(PID.TID 0000.0001) ># Sponge Layer Parameters.
(PID.TID 0000.0001) ># *****************************************
(PID.TID 0000.0001) > &OBCS_PARM03
(PID.TID 0000.0001) ># Urelaxobcsinner=2629800.E0,
(PID.TID 0000.0001) ># Urelaxobcsbound=43200.E0,
(PID.TID 0000.0001) >#
(PID.TID 0000.0001) ># Vrelaxobcsinner=2629800.E0,
(PID.TID 0000.0001) ># Vrelaxobcsbound=43200.E0,
(PID.TID 0000.0001) >#
(PID.TID 0000.0001) ># spongeThickness=16,
(PID.TID 0000.0001) > &
(PID.TID 0000.0001) 
(PID.TID 0000.0001)  OBCS_READPARMS: finished reading data.obcs
(PID.TID 0000.0001)  OB_indexUnset = /* unset OB index value (i.e. no OB) */
(PID.TID 0000.0001)                       0
(PID.TID 0000.0001)     ;
(PID.TID 0000.0001)  Northern OB global indices : OB_Jnorth =
(PID.TID 0000.0001)  2160 @      537                            /* I =  1:*** */
(PID.TID 0000.0001)  Southern OB global indices : OB_Jsouth =
(PID.TID 0000.0001)  2160 @        8                            /* I =  1:*** */
(PID.TID 0000.0001)  Eastern  OB global indices : OB_Ieast =
(PID.TID 0000.0001)   540 @        0                            /* J =  1:540 */
(PID.TID 0000.0001)  Western  OB global indices : OB_Iwest =
(PID.TID 0000.0001)   540 @        0                            /* J =  1:540 */
(PID.TID 0000.0001) 
(PID.TID 0000.0001)  KPP_READPARMS: opening data.kpp
(PID.TID 0000.0001)  OPEN_COPY_DATA_FILE: opening file data.kpp
(PID.TID 0000.0001) // =======================================================
(PID.TID 0000.0001) // Parameter file "data.kpp"
(PID.TID 0000.0001) // =======================================================
(PID.TID 0000.0001) ># KPP parameters
(PID.TID 0000.0001) > &KPP_PARM01
(PID.TID 0000.0001) >### KPPmixingMaps   = .FALSE.,
(PID.TID 0000.0001) >### KPPwriteState   = .FALSE.,
(PID.TID 0000.0001) >### kpp_dumpFreq    = 0.,
(PID.TID 0000.0001) >### kpp_tavefreq    = 0.,
(PID.TID 0000.0001) >### Ricr            = 0.3559,
(PID.TID 0000.0001) >### Riinfty         = 0.6998,
(PID.TID 0000.0001) > &
(PID.TID 0000.0001) 
(PID.TID 0000.0001)  KPP_READPARMS ; starts to read KPP_PARM01
(PID.TID 0000.0001)  KPP_READPARMS ; read KPP_PARM01 : OK
(PID.TID 0000.0001)  KPP_READPARMS: finished reading data.kpp
(PID.TID 0000.0001)  DIAGNOSTICS_READPARMS: opening data.diagnostics
(PID.TID 0000.0001)  OPEN_COPY_DATA_FILE: opening file data.diagnostics
(PID.TID 0000.0001) // =======================================================
(PID.TID 0000.0001) // Parameter file "data.diagnostics"
(PID.TID 0000.0001) // =======================================================
(PID.TID 0000.0001) ># Diagnostic Package Choices
(PID.TID 0000.0001) >#-----------------
(PID.TID 0000.0001) ># for each output-stream:
(PID.TID 0000.0001) >#  filename(n) : prefix of the output file name (only 8.c long) for outp.stream n
(PID.TID 0000.0001) >#  frequency(n):< 0 : write snap-shot output every multiple of |frequency| (iter)
(PID.TID 0000.0001) >#               > 0 : write time-average output every multiple of frequency (iter)
(PID.TID 0000.0001) >#  levels(:,n) : list of levels to write to file (Notes: declared as REAL)
(PID.TID 0000.0001) >#                 when this entry is missing, select all common levels of this list
(PID.TID 0000.0001) >#  fields(:,n) : list of diagnostics fields (8.c) (see "available_diagnostics" file
(PID.TID 0000.0001) >#                 for the list of all available diag. in this particular config)
(PID.TID 0000.0001) >#--------------------------------------------------------------------
(PID.TID 0000.0001) >#
(PID.TID 0000.0001) > &diagnostics_list
(PID.TID 0000.0001) >#
(PID.TID 0000.0001) >   dumpatlast = .TRUE.,
(PID.TID 0000.0001) >#
(PID.TID 0000.0001) >#---
(PID.TID 0000.0001) >  frequency(1) = 3600.0,
(PID.TID 0000.0001) >   fields(1:5,1) = 'ETAN', 'oceTAUX', 'oceTAUY', 'EXFuwind', 'EXFvwind',
(PID.TID 0000.0001) >   filename(1) = 'diags/surface',
(PID.TID 0000.0001) >#---
(PID.TID 0000.0001) >  frequency(2) = 2592000.0,
(PID.TID 0000.0001) >   fields(1:9,2)='THETA','SALT','UVEL','VVEL','WVEL','UVELSQ','VVELSQ','WTHMASS','WSLTMASS',
(PID.TID 0000.0001) >   filename(2) = 'diags/interior',
(PID.TID 0000.0001) >#   levels(1:55,2) =  1., 2., 3., 4., 5., 6., 7., 8., 9.,10.,11.,13.,15.,
(PID.TID 0000.0001) >#                     17.,19.,21.,23.,25.,27.,29.,31.,33.,35.,37.,39.,41.,43.,45.,
(PID.TID 0000.0001) >#                     47.,49.,51.,53.,55.,57.,59.,61.,63.,65.,67.,69.,71.,73.,75.,
(PID.TID 0000.0001) >#                     77.,79.,81.,83.,85.,87.,89.,91.,93.,95.,97.,99.,
(PID.TID 0000.0001) > /
(PID.TID 0000.0001) >#
(PID.TID 0000.0001) >#
(PID.TID 0000.0001) ># Parameter for Diagnostics of per level statistics:
(PID.TID 0000.0001) >#-----------------
(PID.TID 0000.0001) ># for each output-stream:
(PID.TID 0000.0001) >#  stat_fname(n) : prefix of the output file name (only 8.c long) for outp.stream n
(PID.TID 0000.0001) >#  stat_freq(n):< 0 : write snap-shot output every |stat_freq| seconds
(PID.TID 0000.0001) >#               > 0 : write time-average output every stat_freq seconds
(PID.TID 0000.0001) >#  stat_phase(n)    : write at time = stat_phase + multiple of |stat_freq|
(PID.TID 0000.0001) >#  stat_region(:,n) : list of "regions" (default: 1 region only=global)
(PID.TID 0000.0001) >#  stat_fields(:,n) : list of diagnostics fields (8.c) (see "available_diagnostics.log"
(PID.TID 0000.0001) >#                 file for the list of all available diag. in this particular config)
(PID.TID 0000.0001) >#-----------------
(PID.TID 0000.0001) > &DIAG_STATIS_PARMS
(PID.TID 0000.0001) ># diagSt_regMaskFile='basin_masks_eccollc_90x50.bin',
(PID.TID 0000.0001) ># nSetRegMskFile=1,
(PID.TID 0000.0001) ># set_regMask(1)= 1,  1,  1,  1,  1,  1,  1,  1,  1,
(PID.TID 0000.0001) >#                 1,  1,  1,  1,  1,  1,  1,  1
(PID.TID 0000.0001) ># val_regMask(1)= 1., 2., 3., 4., 5., 6., 7., 8., 9.,
(PID.TID 0000.0001) >#                10.,11.,12.,13.,14.,15.,16.,17.
(PID.TID 0000.0001) >##---
(PID.TID 0000.0001) ># stat_fields(1,1)= 'ETAN    ','ETANSQ  ','DETADT2 ',
(PID.TID 0000.0001) >#                   'UVEL    ','VVEL    ','WVEL    ',
(PID.TID 0000.0001) >#                   'THETA   ','SALT    ',
(PID.TID 0000.0001) >#    stat_fname(1)= 'dynStDiag',
(PID.TID 0000.0001) >#     stat_freq(1)= 3153600.,
(PID.TID 0000.0001) ># stat_region(1,1)=  1, 2, 3, 4, 5, 6, 7, 8, 9,
(PID.TID 0000.0001) >#                   10,11,12,13,14,15,16,17
(PID.TID 0000.0001) >##---
(PID.TID 0000.0001) ># stat_fields(1,2)= 'oceTAUX ','oceTAUY ',
(PID.TID 0000.0001) >#                   'surForcT','surForcS','TFLUX   ','SFLUX   ',
(PID.TID 0000.0001) >#                   'oceQnet ','oceSflux','oceFWflx',
(PID.TID 0000.0001) >#    stat_fname(2)= 'surfStDiag',
(PID.TID 0000.0001) >#     stat_freq(2)= 3153600.,
(PID.TID 0000.0001) ># stat_region(1,2)=  1, 2, 3, 4, 5, 6, 7, 8, 9,
(PID.TID 0000.0001) >#                   10,11,12,13,14,15,16,17
(PID.TID 0000.0001) > /
(PID.TID 0000.0001) 
(PID.TID 0000.0001) S/R DIAGNOSTICS_READPARMS, read namelist "diagnostics_list": start
(PID.TID 0000.0001) S/R DIAGNOSTICS_READPARMS, read namelist "diagnostics_list": OK
(PID.TID 0000.0001) S/R DIAGNOSTICS_READPARMS, read namelist "DIAG_STATIS_PARMS": start
(PID.TID 0000.0001) S/R DIAGNOSTICS_READPARMS, read namelist "DIAG_STATIS_PARMS": OK
(PID.TID 0000.0001)  DIAGNOSTICS_READPARMS: global parameter summary:
(PID.TID 0000.0001)  dumpAtLast = /* always write time-ave diags at the end */
(PID.TID 0000.0001)                   T
(PID.TID 0000.0001)     ;
(PID.TID 0000.0001)  diag_mnc =   /* write NetCDF output files */
(PID.TID 0000.0001)                   F
(PID.TID 0000.0001)     ;
(PID.TID 0000.0001)  useMissingValue = /* put MissingValue where mask = 0 */
(PID.TID 0000.0001)                   F
(PID.TID 0000.0001)     ;
(PID.TID 0000.0001)  diagCG_maxIters = /* max number of iters in diag_cg2d */
(PID.TID 0000.0001)                    1000
(PID.TID 0000.0001)     ;
(PID.TID 0000.0001)  diagCG_resTarget = /* residual target for diag_cg2d */
(PID.TID 0000.0001)                 1.000000000000000E-07
(PID.TID 0000.0001)     ;
(PID.TID 0000.0001)  diagCG_pcOffDFac = /* preconditioner off-diagonal factor */
(PID.TID 0000.0001)                 9.611687812379854E-01
(PID.TID 0000.0001)     ;
(PID.TID 0000.0001) -----------------------------------------------------
(PID.TID 0000.0001)  DIAGNOSTICS_READPARMS: active diagnostics summary:
(PID.TID 0000.0001) -----------------------------------------------------
(PID.TID 0000.0001) Creating Output Stream: diags/surface
(PID.TID 0000.0001) Output Frequency:       3600.000000 ; Phase:           0.000000
(PID.TID 0000.0001)  Averaging Freq.:       3600.000000 , Phase:           0.000000 , Cycle:   1
(PID.TID 0000.0001)  missing value: -9.990000000000E+02
(PID.TID 0000.0001)  Levels:    will be set later
(PID.TID 0000.0001)  Fields:    ETAN     oceTAUX  oceTAUY  EXFuwind EXFvwind
(PID.TID 0000.0001) Creating Output Stream: diags/interior
(PID.TID 0000.0001) Output Frequency:    2592000.000000 ; Phase:           0.000000
(PID.TID 0000.0001)  Averaging Freq.:    2592000.000000 , Phase:           0.000000 , Cycle:   1
(PID.TID 0000.0001)  missing value: -9.990000000000E+02
(PID.TID 0000.0001)  Levels:    will be set later
(PID.TID 0000.0001)  Fields:    THETA    SALT     UVEL     VVEL     WVEL     UVELSQ   VVELSQ   WTHMASS  WSLTMASS
(PID.TID 0000.0001) -----------------------------------------------------
(PID.TID 0000.0001)  DIAGNOSTICS_READPARMS: statistics diags. summary:
(PID.TID 0000.0001) -----------------------------------------------------
(PID.TID 0000.0001) 
(PID.TID 0000.0001) SET_PARMS: done
(PID.TID 0000.0001)  MDS_READVEC_LOC: open file: delYFile
(PID.TID 0000.0001) S/R LOAD_GRID_SPACING: delY loaded from file: delYFile
(PID.TID 0000.0001) Enter INI_VERTICAL_GRID: setInterFDr=    T ; setCenterDr=    F
(PID.TID 0000.0001) %MON XC_max                       =   6.9791666666678E+00
(PID.TID 0000.0001) %MON XC_min                       =  -8.2979166666667E+01
(PID.TID 0000.0001) %MON XC_mean                      =  -3.8000000000000E+01
(PID.TID 0000.0001) %MON XC_sd                        =   2.5980759329244E+01
(PID.TID 0000.0001) %MON XG_max                       =   6.9583333333345E+00
(PID.TID 0000.0001) %MON XG_min                       =  -8.3000000000000E+01
(PID.TID 0000.0001) %MON XG_mean                      =  -3.8020833333333E+01
(PID.TID 0000.0001) %MON XG_sd                        =   2.5980759329244E+01
(PID.TID 0000.0001) %MON DXC_max                      =   4.1396408443605E+03
(PID.TID 0000.0001) %MON DXC_min                      =   3.3595207907282E+03
(PID.TID 0000.0001) %MON DXC_mean                     =   3.7639154747743E+03
(PID.TID 0000.0001) %MON DXC_sd                       =   2.2707285978599E+02
(PID.TID 0000.0001) %MON DXF_max                      =   4.1396408443605E+03
(PID.TID 0000.0001) %MON DXF_min                      =   3.3595207907282E+03
(PID.TID 0000.0001) %MON DXF_mean                     =   3.7639154747743E+03
(PID.TID 0000.0001) %MON DXF_sd                       =   2.2707285978599E+02
(PID.TID 0000.0001) %MON DXG_max                      =   4.1402617210449E+03
(PID.TID 0000.0001) %MON DXG_min                      =   3.3603032053391E+03
(PID.TID 0000.0001) %MON DXG_mean                     =   3.7646389662878E+03
(PID.TID 0000.0001) %MON DXG_sd                       =   2.2702689694182E+02
(PID.TID 0000.0001) %MON DXV_max                      =   4.1402617210449E+03
(PID.TID 0000.0001) %MON DXV_min                      =   3.3603032053391E+03
(PID.TID 0000.0001) %MON DXV_mean                     =   3.7646389662878E+03
(PID.TID 0000.0001) %MON DXV_sd                       =   2.2702689694182E+02
(PID.TID 0000.0001) %MON YC_max                       =   4.3512569427490E+01
(PID.TID 0000.0001) %MON YC_min                       =   2.6667170524597E+01
(PID.TID 0000.0001) %MON YC_mean                      =   3.5365724839105E+01
(PID.TID 0000.0001) %MON YC_sd                        =   4.8759077938983E+00
(PID.TID 0000.0001) %MON YG_max                       =   4.3498512268066E+01
(PID.TID 0000.0001) %MON YG_min                       =   2.6650054931641E+01
(PID.TID 0000.0001) %MON YG_mean                      =   3.5350098383868E+01
(PID.TID 0000.0001) %MON YG_sd                        =   4.8767967628688E+00
(PID.TID 0000.0001) %MON DYC_max                      =   3.8052066241563E+03
(PID.TID 0000.0001) %MON DYC_min                      =   3.1263150971014E+03
(PID.TID 0000.0001) %MON DYC_mean                     =   3.4746196212554E+03
(PID.TID 0000.0001) %MON DYC_sd                       =   1.9733005957431E+02
(PID.TID 0000.0001) %MON DYF_max                      =   3.8057367596608E+03
(PID.TID 0000.0001) %MON DYF_min                      =   3.1256789344960E+03
(PID.TID 0000.0001) %MON DYF_mean                     =   3.4746196212554E+03
(PID.TID 0000.0001) %MON DYF_sd                       =   1.9787288708661E+02
(PID.TID 0000.0001) %MON DYG_max                      =   3.8057367596608E+03
(PID.TID 0000.0001) %MON DYG_min                      =   3.1256789344960E+03
(PID.TID 0000.0001) %MON DYG_mean                     =   3.4746196212554E+03
(PID.TID 0000.0001) %MON DYG_sd                       =   1.9787288708661E+02
(PID.TID 0000.0001) %MON DYU_max                      =   3.8052066241563E+03
(PID.TID 0000.0001) %MON DYU_min                      =   3.1263150971014E+03
(PID.TID 0000.0001) %MON DYU_mean                     =   3.4746196212554E+03
(PID.TID 0000.0001) %MON DYU_sd                       =   1.9733005957431E+02
(PID.TID 0000.0001) %MON RA_max                       =   1.5754383098869E+07
(PID.TID 0000.0001) %MON RA_min                       =   1.0500783260236E+07
(PID.TID 0000.0001) %MON RA_mean                      =   1.3123104411967E+07
(PID.TID 0000.0001) %MON RA_sd                        =   1.5313828268276E+06
(PID.TID 0000.0001) %MON RAW_max                      =   1.5754383098869E+07
(PID.TID 0000.0001) %MON RAW_min                      =   1.0500783260236E+07
(PID.TID 0000.0001) %MON RAW_mean                     =   1.3123104411967E+07
(PID.TID 0000.0001) %MON RAW_sd                       =   1.5313828268276E+06
(PID.TID 0000.0001) %MON RAS_max                      =   1.5749824888079E+07
(PID.TID 0000.0001) %MON RAS_min                      =   1.0505367034035E+07
(PID.TID 0000.0001) %MON RAS_mean                     =   1.3125365861136E+07
(PID.TID 0000.0001) %MON RAS_sd                       =   1.5281062334216E+06
(PID.TID 0000.0001) %MON RAZ_max                      =   1.5749824888079E+07
(PID.TID 0000.0001) %MON RAZ_min                      =   1.0505367034035E+07
(PID.TID 0000.0001) %MON RAZ_mean                     =   1.3125365861136E+07
(PID.TID 0000.0001) %MON RAZ_sd                       =   1.5281062334216E+06
(PID.TID 0000.0001) %MON AngleCS_max                  =   1.0000000000000E+00
(PID.TID 0000.0001) %MON AngleCS_min                  =   1.0000000000000E+00
(PID.TID 0000.0001) %MON AngleCS_mean                 =   1.0000000000000E+00
(PID.TID 0000.0001) %MON AngleCS_sd                   =   0.0000000000000E+00
(PID.TID 0000.0001) %MON AngleSN_max                  =   0.0000000000000E+00
(PID.TID 0000.0001) %MON AngleSN_min                  =   0.0000000000000E+00
(PID.TID 0000.0001) %MON AngleSN_mean                 =   0.0000000000000E+00
(PID.TID 0000.0001) %MON AngleSN_sd                   =   0.0000000000000E+00
(PID.TID 0000.0001)  MDS_READ_FIELD: opening global file: bathy.bin
(PID.TID 0000.0001) // =======================================================
(PID.TID 0000.0001) // Field Model R_low (ini_masks_etc)
(PID.TID 0000.0001) // CMIN =         -8.535130615234375E+02
(PID.TID 0000.0001) // CMAX =         -5.000000000000000E+00
(PID.TID 0000.0001) // CINT =          3.142640968605324E+01
(PID.TID 0000.0001) // SYMBOLS (CMIN->CMAX): -abcdefghijklmnopqrstuvwxyz+
(PID.TID 0000.0001) //                  0.0: .
(PID.TID 0000.0001) // RANGE I (Lo:Hi:Step):(    -3:    94:     1)
(PID.TID 0000.0001) // RANGE J (Lo:Hi:Step):(    94:    -3:    -1)
(PID.TID 0000.0001) // RANGE K (Lo:Hi:Step):(   1:   1:   1)
(PID.TID 0000.0001) // =======================================================
(PID.TID 0000.0001) K =   1
(PID.TID 0000.0001) //                I=6       I=16      I=26      I=36      I=46      I=56      I=66      I=76      I=86
(PID.TID 0000.0001) // |--J--|321012345|789012345|789012345|789012345|789012345|789012345|789012345|789012345|789012345|78901234
(PID.TID 0000.0001) //     94 ..............................................+++++++zzzzzzzzzzzzzzzzyvrpnlkjhfecbbbbbbbbbbbbbbbbb
(PID.TID 0000.0001) //     93 ..............................................++++++++zzzzzzzzzzzzzzzyvronlkjhfecbbbbbbbbbbbbbbbbb
(PID.TID 0000.0001) //     92 ..............................................+++++++zzzzzzzzzzzzzzzzywronlkjhfedcbbbbbbbbbbbbbbbb
(PID.TID 0000.0001) //     91 ..............................................+++++++zzzzzzzzzzzzzzzzywrpnlkjhfeedbbbbbbbbbbbbbbbb
(PID.TID 0000.0001) //     90 ...............................................+++++++zzzzzzzzzzzzzzzywspnlkihfeedcbbbbbbbbbbbbbbb
(PID.TID 0000.0001) //     89 ...............................................++++++++zzzzzzzzzzzzzzyxspnlkigeeedcbbbbbbbbbbbbbbb
(PID.TID 0000.0001) //     88 ...............................................+++++++++zzzzzzzzzzzzzyxtpnmkjgeeedcbbbbbbbbbbbbbbb
(PID.TID 0000.0001) //     87 ................................................+++++++zzzzzzzzzzzzzzyxupnmkjheeedcbbbbbbbbbbbbbbb
(PID.TID 0000.0001) //     86 ................................................++++++++++++zzzzzzzzzyxvpnmljheeedcbbbbbbbbbbbbbbb
(PID.TID 0000.0001) //     85 .................................................+++z++z++++zzzzzzzzzyxwqnmljheeeddbbbbbbbbbbbbbbb
(PID.TID 0000.0001) //     84 .................................................+++++zzzzzzzzzzzzzzzyywrnmljhfeeddcbbbbbbbbbbbbbb
(PID.TID 0000.0001) //     83 .................................................++++++zzzzzzzzzzzzzzyywtnmljifeeedcbbbbbbbbbbbbbb
(PID.TID 0000.0001) //     82 ..................................................++++++zzzzzzzzzzzzzyyxuomljigeeedcbbbbbbbbbbbbbb
(PID.TID 0000.0001) //     81 ..................................................+++++++zzzzzzzzzzzzyyxvpmkkigeeddccbbbbbbbbbbbbb
(PID.TID 0000.0001) //     80 ..................................................+++++++zzzzzzzzzzzzyyxvrnlkjgeeddccbbbbbbbbbbbbb
(PID.TID 0000.0001) //     79 ...................................................+++++zzzzzzzzzzzzzyyxwtpnmkheeddccbbbbbbbbbbbbb
(PID.TID 0000.0001) //     78 ...................................................++++++zzzzzzzzzzzzzyywurpnlhfeddccbbbbbbbbbbbbb
(PID.TID 0000.0001) //     77 ....................................................++++zzzzzzzzzzzzzzyywvspnkifeddccbbbbbbbbbbbbb
(PID.TID 0000.0001) //     76 ....................................................+++++zzzzzzzzzzzzzyyxvsomkifeddccbbbbbbbbbbbbb
(PID.TID 0000.0001) //     75 ....................................................++++++zzzzzzzzzzzzyyxvsomkifeddcccbbbbbbbbbbbb
(PID.TID 0000.0001) //     74 .....................................................++++++zzzzzzzzzzzyyxwtpmkifeddcccbbbbbbbbbbbb
(PID.TID 0000.0001) //     73 .....................................................++++++zzzzzzzzzzzyyywuqnligedddccbbbbbbbbbbbb
(PID.TID 0000.0001) //     72 ......................................................+++++++zzzzzzzzzzyywuroljhfeddccbbbbbbbbbbbb
(PID.TID 0000.0001) //     71 ......................................................+++++++++zzzzzzzzyyxvspmkhfeddccbbbbbbbbbbbb
(PID.TID 0000.0001) //     70 .......................................................++++++++z+zzzzzzyyxvtqnligeddcccbbbbbbbbbbb
(PID.TID 0000.0001) //     69 .......................................................+++++++++zzzzzzzyyxvtromjgeddccbbbbbbbbbbbb
(PID.TID 0000.0001) //     68 ........................................................+++++++++zzzzzzyyxwurpnkhfdcccbbbbbbbbbbbb
(PID.TID 0000.0001) //     67 .........................................................+++++z++zzzzzzyyxwusqolifdbcbbbbbbbbbabbb
(PID.TID 0000.0001) //     66 .........................................................+++++z++zzzzzzzyywusqomjgecbbbbbbbbbaaaab
(PID.TID 0000.0001) //     65 .........................................................++++++++zzzzzzzyywvtrpnkhecbbbaabbaaaaaaa
(PID.TID 0000.0001) //     64 ..........................................................++++++++zzzzzzyyxvtrpnlhfccbbbabbaaaaaaa
(PID.TID 0000.0001) //     63 ..........................................................++++++++zzzzzzyyxvtrpnlifccbbbabaaaaaaaa
(PID.TID 0000.0001) //     62 ...........................................................+++++++zzzzzzyyxvurpoljgccbbbbaaaaaaaaa
(PID.TID 0000.0001) //     61 ............................................................+++++++zzzzzyyxwusqomkgdcbbbaaaaaaaaaa
(PID.TID 0000.0001) //     60 .............................................................++++++zzzzzyyxwusqomkhdcbbbaaaaaaaaaa
(PID.TID 0000.0001) //     59 .............................................................++++++zzzzzyyywusqonliecbbbaaaaaaaaaa
(PID.TID 0000.0001) //     58 ..............................................................++++++zzzzyyyxvtrpnljfcbbbaaaaaaa-aa
(PID.TID 0000.0001) //     57 ..............................................................++++++zzzzzyyxvtrpnljgcbbbaaaaaaa-aa
(PID.TID 0000.0001) //     56 ..............................................................++++++zzzzzyyxvtrpnljgdbbbbaaaaaa-a-
(PID.TID 0000.0001) //     55 ...............................................................++++zzzzzzyyxvusqnljgdbbbbbaaaaa---
(PID.TID 0000.0001) //     54 ...............................................................++++zzzzzzyyxwusqomkhdbbbbbaaaaaa--
(PID.TID 0000.0001) //     53 ...............................................................+++++zzzzzyyywusqomkhdbbbbbbaaaaa--
(PID.TID 0000.0001) //     52 ............................................................++++++++zzzzzyyywusqomkidbbbbbbbaaaa--
(PID.TID 0000.0001) //     51 ............................................................++++++++zzzzzyyywutqpnliebabbbbbbaaa--
(PID.TID 0000.0001) //     50 .............................................................+++++++zzzzzzyywvtrpnlifcabbbbbbaaaa-
(PID.TID 0000.0001) //     49 .............................................................++++++++zzzzzyyxvtrpnljfcabbccbbaaa--
(PID.TID 0000.0001) //     48 ............................................................+++++++++zzzzzyyxvtrpnljfcbbbcccbbaa--
(PID.TID 0000.0001) //     47 ............................................................+++++++++zzzzzyyxvtrpnmjfcbbcccccbaaa-
(PID.TID 0000.0001) //     46 ............................................................+++++++++zzzzzyyxvusqnmjgcbbccdcccbaaa
(PID.TID 0000.0001) //     45 .............................................................++++++zzzzzzzzyxvusqnljfcbbccddccbbaa
(PID.TID 0000.0001) //     44 ..............................................................+++++zzzzzzzzyxwusqnmjgcbbcddddccbaa
(PID.TID 0000.0001) //     43 ..............................................................++++z+zzzzzzzyxwusqnmkgcbbcdedddcbba
(PID.TID 0000.0001) //     42 ..............................................................++++z+zzzzzzzyxwusqomkgcbbcdeeeddcbb
(PID.TID 0000.0001) //     41 ...............................................................+++++zzzzzzzyxwusqomjgcbbcdeeeeddcb
(PID.TID 0000.0001) //     40 ...............................................................++++++zzzzzzyxwusqomkgdbbcdeeeeeddb
(PID.TID 0000.0001) //     39 ................................................................++++++zzzzzyxwusqomkhdbbcdeeffeedc
(PID.TID 0000.0001) //     38 ................................................................+++++++zzzzyxwutqomkhdbbcdefffffed
(PID.TID 0000.0001) //     37 .................................................................++++++zzzzyywutqomkhdbbceefgggffe
(PID.TID 0000.0001) //     36 .................................................................++++++zzzzyxwusqomkhdcbceffghggff
(PID.TID 0000.0001) //     35 .................................................................+++++++zzzyywusqomkhdccdefghhhhgg
(PID.TID 0000.0001) //     34 ..................................................................++++++zzzyywusqomkhddcdefghhihhh
(PID.TID 0000.0001) //     33 ..................................................................++++++zzzzywusqomkhddddefghiiiih
(PID.TID 0000.0001) //     32 ...................................................................+++++zzzyywusqomkheddeefgiijjji
(PID.TID 0000.0001) //     31 ...................................................................++++++zzyywusqomkieddeefhijkkkj
(PID.TID 0000.0001) //     30 ...................................................................+++++zzzzywusqomkieddeefhijkllk
(PID.TID 0000.0001) //     29 ....................................................................+++++zzzywusqomkieddeefhiklmmm
(PID.TID 0000.0001) //     28 ....................................................................+++++zzzywusqomkheddeefhjkmnon
(PID.TID 0000.0001) //     27 ....................................................................+++++zzzywusqomkheddeeghjlmopp
(PID.TID 0000.0001) //     26 .....................................................................++++zzzywusqomkheddeeghjkmoqq
(PID.TID 0000.0001) //     25 ....................................................................+++++zzzxwusqomkhdcddefhiknprr
(PID.TID 0000.0001) //     24 ....................................................................++++++zzywusqomkhdcddeghiknqss
(PID.TID 0000.0001) //     23 .....................................................................+++++zzywusqomkhcddefghiknqux
(PID.TID 0000.0001) //     22 .....................................................................+++++zzywusqomjhdcddefhilnrzz
(PID.TID 0000.0001) //     21 ......................................................................++++zzywusqomjhdddeefhiknrzz
(PID.TID 0000.0001) //     20 ......................................................................++++zzywusqomjgdddefghilnszz
(PID.TID 0000.0001) //     19 .......................................................................+++zzywusqomjgddddefgiknsyz
(PID.TID 0000.0001) //     18 .......................................................................+++zzywurqomkgddddefgijntyz
(PID.TID 0000.0001) //     17 ........................................................................++zzywtrpomkhddddefghjmtxy
(PID.TID 0000.0001) //     16 ........................................................................+++zywurpomkhdcddefghjmuwy
(PID.TID 0000.0001) //     15 .........................................................................++zxwtrpomkhdcccdfghjnvwx
(PID.TID 0000.0001) //     14 .........................................................................++zxwurpnmkhecccdfghjmuwx
(PID.TID 0000.0001) //     13 .........................................................................++zxwtrpnmkhecccdfghiltwx
(PID.TID 0000.0001) //     12 ..........................................................................+zxwurpnlkiecccdfggikqxx
(PID.TID 0000.0001) //     11 ..........................................................................++yvtrpnljhfdccdefghjmvw
(PID.TID 0000.0001) //     10 ..........................................................................++yvtrpnljhecccdefghjlru
(PID.TID 0000.0001) //      9 ..........................................................................++yvtrpnljhedccdeffgikos
(PID.TID 0000.0001) //      8 ..........................................................................++yvtrpnligedccdfffgiknr
(PID.TID 0000.0001) //      7 ..................................................................................................
(PID.TID 0000.0001) //      6 ..................................................................................................
(PID.TID 0000.0001) //      5 ..................................................................................................
(PID.TID 0000.0001) //      4 ..................................................................................................
(PID.TID 0000.0001) //      3 ..................................................................................................
(PID.TID 0000.0001) //      2 ..................................................................................................
(PID.TID 0000.0001) //      1 ..................................................................................................
(PID.TID 0000.0001) //      0 ..................................................................................................
(PID.TID 0000.0001) //     -1 ..................................................................................................
(PID.TID 0000.0001) //     -2 ..................................................................................................
(PID.TID 0000.0001) //     -3 ..................................................................................................
(PID.TID 0000.0001) // =======================================================
(PID.TID 0000.0001) // END OF FIELD                                          =
(PID.TID 0000.0001) // =======================================================
(PID.TID 0000.0001) 
(PID.TID 0000.0001) // =======================================================
(PID.TID 0000.0001) // Field Model Ro_surf (ini_masks_etc)
(PID.TID 0000.0001) // CMIN =          1.000000000000000E+32
(PID.TID 0000.0001) // CMAX =         -1.000000000000000E+32
(PID.TID 0000.0001) // CINT =          0.000000000000000E+00
(PID.TID 0000.0001) // SYMBOLS (CMIN->CMAX): -abcdefghijklmnopqrstuvwxyz+
(PID.TID 0000.0001) //                  0.0: .
(PID.TID 0000.0001) // RANGE I (Lo:Hi:Step):(    -3:    94:     1)
(PID.TID 0000.0001) // RANGE J (Lo:Hi:Step):(    94:    -3:    -1)
(PID.TID 0000.0001) // RANGE K (Lo:Hi:Step):(   1:   1:   1)
(PID.TID 0000.0001) // =======================================================
(PID.TID 0000.0001) // =======================================================
(PID.TID 0000.0001) // END OF FIELD                                          =
(PID.TID 0000.0001) // =======================================================
(PID.TID 0000.0001) 
(PID.TID 0000.0001) // =======================================================
(PID.TID 0000.0001) // Field hFacC at iteration          0
(PID.TID 0000.0001) // CMIN =          1.000000000000000E+00
(PID.TID 0000.0001) // CMAX =          1.000000000000000E+00
(PID.TID 0000.0001) // CINT =          0.000000000000000E+00
(PID.TID 0000.0001) // SYMBOLS (CMIN->CMAX): -abcdefghijklmnopqrstuvwxyz+
(PID.TID 0000.0001) //                  0.0: .
(PID.TID 0000.0001) // RANGE I (Lo:Hi:Step):(    -3:    94:     1)
(PID.TID 0000.0001) // RANGE J (Lo:Hi:Step):(    94:    -3:    -1)
(PID.TID 0000.0001) // RANGE K (Lo:Hi:Step):(   1:   1:   1)
(PID.TID 0000.0001) // =======================================================
(PID.TID 0000.0001) // =======================================================
(PID.TID 0000.0001) // END OF FIELD                                          =
(PID.TID 0000.0001) // =======================================================
(PID.TID 0000.0001) 
(PID.TID 0000.0001) // =======================================================
(PID.TID 0000.0001) // Field hFacW at iteration          0
(PID.TID 0000.0001) // CMIN =          1.000000000000000E+00
(PID.TID 0000.0001) // CMAX =          1.000000000000000E+00
(PID.TID 0000.0001) // CINT =          0.000000000000000E+00
(PID.TID 0000.0001) // SYMBOLS (CMIN->CMAX): -abcdefghijklmnopqrstuvwxyz+
(PID.TID 0000.0001) //                  0.0: .
(PID.TID 0000.0001) // RANGE I (Lo:Hi:Step):(    -3:    94:     1)
(PID.TID 0000.0001) // RANGE J (Lo:Hi:Step):(    94:    -3:    -1)
(PID.TID 0000.0001) // RANGE K (Lo:Hi:Step):(   1:   1:   1)
(PID.TID 0000.0001) // =======================================================
(PID.TID 0000.0001) // =======================================================
(PID.TID 0000.0001) // END OF FIELD                                          =
(PID.TID 0000.0001) // =======================================================
(PID.TID 0000.0001) 
(PID.TID 0000.0001) // =======================================================
(PID.TID 0000.0001) // Field hFacS at iteration          0
(PID.TID 0000.0001) // CMIN =          1.000000000000000E+00
(PID.TID 0000.0001) // CMAX =          1.000000000000000E+00
(PID.TID 0000.0001) // CINT =          0.000000000000000E+00
(PID.TID 0000.0001) // SYMBOLS (CMIN->CMAX): -abcdefghijklmnopqrstuvwxyz+
(PID.TID 0000.0001) //                  0.0: .
(PID.TID 0000.0001) // RANGE I (Lo:Hi:Step):(    -3:    94:     1)
(PID.TID 0000.0001) // RANGE J (Lo:Hi:Step):(    94:    -3:    -1)
(PID.TID 0000.0001) // RANGE K (Lo:Hi:Step):(   1:   1:   1)
(PID.TID 0000.0001) // =======================================================
(PID.TID 0000.0001) // =======================================================
(PID.TID 0000.0001) // END OF FIELD                                          =
(PID.TID 0000.0001) // =======================================================
(PID.TID 0000.0001) 
(PID.TID 0000.0001) 
(PID.TID 0000.0001) // =======================================================
(PID.TID 0000.0001) // Calendar configuration >>> START <<<
(PID.TID 0000.0001) // =======================================================
(PID.TID 0000.0001) 
(PID.TID 0000.0001) modelstart = /* Start time of the model integration [s] */
(PID.TID 0000.0001)                 0.000000000000000E+00
(PID.TID 0000.0001)     ;
(PID.TID 0000.0001) modelend  = /* End time of the model integration [s] */
(PID.TID 0000.0001)                 3.600000000000000E+03
(PID.TID 0000.0001)     ;
(PID.TID 0000.0001) modelStep = /* Time interval for a model forward step [s] */
(PID.TID 0000.0001)                 2.400000000000000E+02
(PID.TID 0000.0001)     ;
(PID.TID 0000.0001) usingGregorianCalendar= /* Calendar Type: Gregorian Calendar */
(PID.TID 0000.0001)                   T
(PID.TID 0000.0001)     ;
(PID.TID 0000.0001) usingJulianCalendar = /* Calendar Type: Julian Calendar */
(PID.TID 0000.0001)                   F
(PID.TID 0000.0001)     ;
(PID.TID 0000.0001) usingNoLeapYearCal  = /* Calendar Type: without Leap Year */
(PID.TID 0000.0001)                   F
(PID.TID 0000.0001)     ;
(PID.TID 0000.0001) usingModelCalendar  = /* Calendar Type: Model Calendar */
(PID.TID 0000.0001)                   F
(PID.TID 0000.0001)     ;
(PID.TID 0000.0001) modelStartDate YYYYMMDD = /* Model start date YYYY-MM-DD */
(PID.TID 0000.0001)                20080101
(PID.TID 0000.0001)     ;
(PID.TID 0000.0001)   modelStartDate HHMMSS = /* Model start date HH-MM-SS  */
(PID.TID 0000.0001)                       0
(PID.TID 0000.0001)     ;
(PID.TID 0000.0001) modelEndDate   YYYYMMDD = /* Model end date YYYY-MM-DD */
(PID.TID 0000.0001)                20080101
(PID.TID 0000.0001)     ;
(PID.TID 0000.0001)   modelEndDate   HHMMSS = /* Model end date HH-MM-SS  */
(PID.TID 0000.0001)                   10000
(PID.TID 0000.0001)     ;
(PID.TID 0000.0001) intyears = /* Number of calendar years affected by the integration */
(PID.TID 0000.0001)                       1
(PID.TID 0000.0001)     ;
(PID.TID 0000.0001) intmonths= /* Number of calendar months affected by the integration */
(PID.TID 0000.0001)                       1
(PID.TID 0000.0001)     ;
(PID.TID 0000.0001) intdays = /* Number of calendar days affected by the integration */
(PID.TID 0000.0001)                       1
(PID.TID 0000.0001)     ;
(PID.TID 0000.0001) modelIter0 = /* Base timestep number  */
(PID.TID 0000.0001)                       0
(PID.TID 0000.0001)     ;
(PID.TID 0000.0001) modelIterEnd = /* Final timestep number  */
(PID.TID 0000.0001)                      15
(PID.TID 0000.0001)     ;
(PID.TID 0000.0001) modelIntSteps= /* Number of model timesteps  */
(PID.TID 0000.0001)                      15
(PID.TID 0000.0001)     ;
(PID.TID 0000.0001) 
(PID.TID 0000.0001) // =======================================================
(PID.TID 0000.0001) // Calendar configuration  >>> END <<<
(PID.TID 0000.0001) // =======================================================
(PID.TID 0000.0001) 
(PID.TID 0000.0001) GAD_INIT_FIXED: GAD_OlMinSize=  4  0  1
(PID.TID 0000.0001) 
(PID.TID 0000.0001) // ===================================
(PID.TID 0000.0001) // GAD parameters :
(PID.TID 0000.0001) // ===================================
(PID.TID 0000.0001) tempAdvScheme =   /* Temp. Horiz.Advection scheme selector */
(PID.TID 0000.0001)                       7
(PID.TID 0000.0001)     ;
(PID.TID 0000.0001) tempVertAdvScheme =   /* Temp. Vert. Advection scheme selector */
(PID.TID 0000.0001)                       7
(PID.TID 0000.0001)     ;
(PID.TID 0000.0001) tempMultiDimAdvec =   /* use Muti-Dim Advec method for Temp */
(PID.TID 0000.0001)                   T
(PID.TID 0000.0001)     ;
(PID.TID 0000.0001) tempSOM_Advection = /* use 2nd Order Moment Advection for Temp */
(PID.TID 0000.0001)                   F
(PID.TID 0000.0001)     ;
(PID.TID 0000.0001) AdamsBashforthGt = /* apply Adams-Bashforth extrapolation on Gt */
(PID.TID 0000.0001)                   F
(PID.TID 0000.0001)     ;
(PID.TID 0000.0001) AdamsBashforth_T = /* apply Adams-Bashforth extrapolation on Temp */
(PID.TID 0000.0001)                   F
(PID.TID 0000.0001)     ;
(PID.TID 0000.0001) saltAdvScheme =   /* Salt. Horiz.advection scheme selector */
(PID.TID 0000.0001)                       7
(PID.TID 0000.0001)     ;
(PID.TID 0000.0001) saltVertAdvScheme =   /* Salt. Vert. Advection scheme selector */
(PID.TID 0000.0001)                       7
(PID.TID 0000.0001)     ;
(PID.TID 0000.0001) saltMultiDimAdvec =   /* use Muti-Dim Advec method for Salt */
(PID.TID 0000.0001)                   T
(PID.TID 0000.0001)     ;
(PID.TID 0000.0001) saltSOM_Advection = /* use 2nd Order Moment Advection for Salt */
(PID.TID 0000.0001)                   F
(PID.TID 0000.0001)     ;
(PID.TID 0000.0001) AdamsBashforthGs = /* apply Adams-Bashforth extrapolation on Gs */
(PID.TID 0000.0001)                   F
(PID.TID 0000.0001)     ;
(PID.TID 0000.0001) AdamsBashforth_S = /* apply Adams-Bashforth extrapolation on Salt */
(PID.TID 0000.0001)                   F
(PID.TID 0000.0001)     ;
(PID.TID 0000.0001) // ===================================
(PID.TID 0000.0001) OBCS_INIT_FIXED: Setting OB indices in Overlap
(PID.TID 0000.0001)  Sets OBS(i,bi,bj=   91,  1,  1)=    8
(PID.TID 0000.0001)  Sets OBS(i,bi,bj=   92,  1,  1)=    8
(PID.TID 0000.0001)  Sets OBS(i,bi,bj=   93,  1,  1)=    8
(PID.TID 0000.0001)  Sets OBS(i,bi,bj=   94,  1,  1)=    8
(PID.TID 0000.0001) OBCS_INIT_FIXED: Setting OB indices in Overlap <= done
(PID.TID 0000.0001) 
(PID.TID 0000.0001) // =======================================================
(PID.TID 0000.0001) // External forcing (EXF) configuration >>> START <<<
(PID.TID 0000.0001) // =======================================================
(PID.TID 0000.0001) 
(PID.TID 0000.0001)  EXF general parameters:
(PID.TID 0000.0001) 
(PID.TID 0000.0001) exf_iprec = /* exf file precision */
(PID.TID 0000.0001)                      32
(PID.TID 0000.0001)     ;
(PID.TID 0000.0001) useExfYearlyFields = /* add extension _YEAR to input file names */
(PID.TID 0000.0001)                   T
(PID.TID 0000.0001)     ;
(PID.TID 0000.0001) twoDigitYear = /* use 2-digit year extension */
(PID.TID 0000.0001)                   F
(PID.TID 0000.0001)     ;
(PID.TID 0000.0001) useExfCheckRange = /* check for fields range */
(PID.TID 0000.0001)                   F
(PID.TID 0000.0001)     ;
(PID.TID 0000.0001) exf_output_interp = /* output directly interpolation result */
(PID.TID 0000.0001)                   F
(PID.TID 0000.0001)     ;
(PID.TID 0000.0001) exf_debugLev = /* select EXF-debug printing level */
(PID.TID 0000.0001)                       2
(PID.TID 0000.0001)     ;
(PID.TID 0000.0001) exf_monFreq  = /* EXF monitor frequency [ s ] */
(PID.TID 0000.0001)                 2.400000000000000E+02
(PID.TID 0000.0001)     ;
(PID.TID 0000.0001) repeatPeriod = /* period for cycling forcing dataset [ s ] */
(PID.TID 0000.0001)                 0.000000000000000E+00
(PID.TID 0000.0001)     ;
(PID.TID 0000.0001) climTempFreeze= /* Minimum climatological temperature [deg.C] */
(PID.TID 0000.0001)                -1.900000000000000E+00
(PID.TID 0000.0001)     ;
(PID.TID 0000.0001) windStressMax = /* Maximum absolute windstress [ Pa ] */
(PID.TID 0000.0001)                 2.000000000000000E+00
(PID.TID 0000.0001)     ;
(PID.TID 0000.0001) stressIsOnCgrid = /* set u,v_stress on Arakawa C-grid */
(PID.TID 0000.0001)                   F
(PID.TID 0000.0001)     ;
(PID.TID 0000.0001) rotateStressOnAgrid = /* rotate u,v_stress on Arakawa A-grid */
(PID.TID 0000.0001)                   F
(PID.TID 0000.0001)     ;
(PID.TID 0000.0001) cen2kel = /* conversion of deg. Centigrade to Kelvin [K] */
(PID.TID 0000.0001)                 2.731500000000000E+02
(PID.TID 0000.0001)     ;
(PID.TID 0000.0001) gravity_mks= /* gravitational acceleration [m/s^2] */
(PID.TID 0000.0001)                 9.810000000000000E+00
(PID.TID 0000.0001)     ;
(PID.TID 0000.0001) atmrho =  /* mean atmospheric density [kg/m^3] */
(PID.TID 0000.0001)                 1.200000000000000E+00
(PID.TID 0000.0001)     ;
(PID.TID 0000.0001) atmcp =  /* mean atmospheric specific heat [J/kg/K] */
(PID.TID 0000.0001)                 1.005000000000000E+03
(PID.TID 0000.0001)     ;
(PID.TID 0000.0001) flamb =  /* latent heat of evaporation [J/kg] */
(PID.TID 0000.0001)                 2.500000000000000E+06
(PID.TID 0000.0001)     ;
(PID.TID 0000.0001) flami =  /* latent heat of pure-ice melting [J/kg] */
(PID.TID 0000.0001)                 3.340000000000000E+05
(PID.TID 0000.0001)     ;
(PID.TID 0000.0001) cvapor_fac = /* const. for Saturation calculation [?] */
(PID.TID 0000.0001)                 6.403800000000000E+05
(PID.TID 0000.0001)     ;
(PID.TID 0000.0001) cvapor_exp = /* const. for Saturation calculation [?] */
(PID.TID 0000.0001)                 5.107400000000000E+03
(PID.TID 0000.0001)     ;
(PID.TID 0000.0001) cvapor_fac_ice= /* const. for Saturation calculation [?] */
(PID.TID 0000.0001)                 1.163780000000000E+07
(PID.TID 0000.0001)     ;
(PID.TID 0000.0001) cvapor_exp_ice= /* const. for Saturation calculation [?] */
(PID.TID 0000.0001)                 5.897800000000000E+03
(PID.TID 0000.0001)     ;
(PID.TID 0000.0001) humid_fac = /* humidity coef. in virtual temp. [(kg/kg)^-1] */
(PID.TID 0000.0001)                 6.060000000000000E-01
(PID.TID 0000.0001)     ;
(PID.TID 0000.0001) gamma_blk = /* adiabatic lapse rate [?] */
(PID.TID 0000.0001)                 1.000000000000000E-02
(PID.TID 0000.0001)     ;
(PID.TID 0000.0001) saltsat = /* reduction of Qsat over salty water [-] */
(PID.TID 0000.0001)                 9.800000000000000E-01
(PID.TID 0000.0001)     ;
(PID.TID 0000.0001) noNegativeEvap = /* prevent negative Evaporation */
(PID.TID 0000.0001)                   F
(PID.TID 0000.0001)     ;
(PID.TID 0000.0001) sstExtrapol = /* extrapolation coeff from lev. 1 & 2 to surf [-] */
(PID.TID 0000.0001)                 0.000000000000000E+00
(PID.TID 0000.0001)     ;
(PID.TID 0000.0001) cDrag_1 = /* coef used in drag calculation [?] */
(PID.TID 0000.0001)                 2.700000000000000E-03
(PID.TID 0000.0001)     ;
(PID.TID 0000.0001) cDrag_2 = /* coef used in drag calculation [?] */
(PID.TID 0000.0001)                 1.420000000000000E-04
(PID.TID 0000.0001)     ;
(PID.TID 0000.0001) cDrag_3 = /* coef used in drag calculation [?] */
(PID.TID 0000.0001)                 7.640000000000000E-05
(PID.TID 0000.0001)     ;
(PID.TID 0000.0001) cStanton_1 = /* coef used in Stanton number calculation [?] */
(PID.TID 0000.0001)                 3.270000000000000E-02
(PID.TID 0000.0001)     ;
(PID.TID 0000.0001) cStanton_2 = /* coef used in Stanton number calculation [?] */
(PID.TID 0000.0001)                 1.800000000000000E-02
(PID.TID 0000.0001)     ;
(PID.TID 0000.0001) cDalton = /* coef used in Dalton number calculation [?] */
(PID.TID 0000.0001)                 3.460000000000000E-02
(PID.TID 0000.0001)     ;
(PID.TID 0000.0001) exf_scal_BulkCdn= /* Drag coefficient scaling factor [-] */
(PID.TID 0000.0001)                 1.000000000000000E+00
(PID.TID 0000.0001)     ;
(PID.TID 0000.0001) zolmin = /* minimum stability parameter [?] */
(PID.TID 0000.0001)                -1.000000000000000E+02
(PID.TID 0000.0001)     ;
(PID.TID 0000.0001) psim_fac = /* coef used in turbulent fluxes calculation [-] */
(PID.TID 0000.0001)                 5.000000000000000E+00
(PID.TID 0000.0001)     ;
(PID.TID 0000.0001) zref =  /* reference height [ m ] */
(PID.TID 0000.0001)                 1.000000000000000E+01
(PID.TID 0000.0001)     ;
(PID.TID 0000.0001) hu =  /* height of mean wind [ m ] */
(PID.TID 0000.0001)                 1.000000000000000E+01
(PID.TID 0000.0001)     ;
(PID.TID 0000.0001) ht =  /* height of mean temperature [ m ] */
(PID.TID 0000.0001)                 2.000000000000000E+00
(PID.TID 0000.0001)     ;
(PID.TID 0000.0001) hq =  /* height of mean spec.humidity [ m ] */
(PID.TID 0000.0001)                 2.000000000000000E+00
(PID.TID 0000.0001)     ;
(PID.TID 0000.0001) uMin = /* minimum wind speed [m/s] */
(PID.TID 0000.0001)                 5.000000000000000E-01
(PID.TID 0000.0001)     ;
(PID.TID 0000.0001) useStabilityFct_overIce= /* transfert Coeffs over sea-ice depend on stability */
(PID.TID 0000.0001)                   F
(PID.TID 0000.0001)     ;
(PID.TID 0000.0001) exf_iceCd = /* drag coefficient over sea-ice (fixed) [-] */
(PID.TID 0000.0001)                 1.630000000000000E-03
(PID.TID 0000.0001)     ;
(PID.TID 0000.0001) exf_iceCe = /* transfert coeff. over sea-ice, for Evap (fixed) [-] */
(PID.TID 0000.0001)                 1.630000000000000E-03
(PID.TID 0000.0001)     ;
(PID.TID 0000.0001) exf_iceCh = /* transfert coeff. over sea-ice, Sens.Heat.(fixed)[-] */
(PID.TID 0000.0001)                 1.630000000000000E-03
(PID.TID 0000.0001)     ;
(PID.TID 0000.0001) exf_albedo =  /* Sea-water albedo [-] */
(PID.TID 0000.0001)                 1.000000000000000E-01
(PID.TID 0000.0001)     ;
(PID.TID 0000.0001) useExfZenAlbedo = /* Sea-water albedo varies with zenith angle */
(PID.TID 0000.0001)                   T
(PID.TID 0000.0001)     ;
(PID.TID 0000.0001) select_ZenAlbedo = /* Sea-water albedo computation method */
(PID.TID 0000.0001)                       1
(PID.TID 0000.0001)     ;
(PID.TID 0000.0001) useExfZenIncoming = /* compute incoming solar radiation */
(PID.TID 0000.0001)                   T
(PID.TID 0000.0001)     ;
(PID.TID 0000.0001) ocean_emissivity = /* longwave ocean-surface emissivity [-] */
(PID.TID 0000.0001)                 9.700000000000000E-01
(PID.TID 0000.0001)     ;
(PID.TID 0000.0001) ice_emissivity = /* longwave seaice emissivity [-] */
(PID.TID 0000.0001)                 9.500000000000000E-01
(PID.TID 0000.0001)     ;
(PID.TID 0000.0001) snow_emissivity = /* longwave snow  emissivity [-] */
(PID.TID 0000.0001)                 9.500000000000000E-01
(PID.TID 0000.0001)     ;
(PID.TID 0000.0001) 
(PID.TID 0000.0001)  EXF main CPP flags:
(PID.TID 0000.0001) 
(PID.TID 0000.0001) // USE_EXF_INTERPOLATION:              defined
(PID.TID 0000.0001) // ALLOW_ATM_TEMP:                     defined
(PID.TID 0000.0001) // ALLOW_ATM_WIND (useAtmWind):        defined
(PID.TID 0000.0001) // ALLOW_DOWNWARD_RADIATION:           defined
(PID.TID 0000.0001) // ALLOW_BULKFORMULAE:                 defined
(PID.TID 0000.0001) 
(PID.TID 0000.0001)    Zonal wind forcing starts at                          0.
(PID.TID 0000.0001)    Zonal wind forcing period is                       3600.
(PID.TID 0000.0001)    Zonal wind forcing repeat-cycle is                    0.
(PID.TID 0000.0001)    Zonal wind forcing is read from file:
(PID.TID 0000.0001)    >> era5/ERA5_u10m <<
(PID.TID 0000.0001)    interpolate "uwind" (method= 12 ):
(PID.TID 0000.0001)    lon0=   0.00000, nlon=  1280, lon_inc= 0.2812500
(PID.TID 0000.0001)    lat0= -89.78489, nlat=   640, inc(min,max)= 0.27868 0.28103
(PID.TID 0000.0001) 
(PID.TID 0000.0001)    Meridional wind forcing starts at                     0.
(PID.TID 0000.0001)    Meridional wind forcing period is                  3600.
(PID.TID 0000.0001)    Meridional wind forcing repeat-cycle is               0.
(PID.TID 0000.0001)    Meridional wind forcing is read from file:
(PID.TID 0000.0001)    >> era5/ERA5_v10m <<
(PID.TID 0000.0001)    interpolate "vwind" (method= 22 ):
(PID.TID 0000.0001)    lon0=   0.00000, nlon=  1280, lon_inc= 0.2812500
(PID.TID 0000.0001)    lat0= -89.78489, nlat=   640, inc(min,max)= 0.27868 0.28103
(PID.TID 0000.0001)     Interp. U & V comp. together: uvInterp_wind =    T
(PID.TID 0000.0001) 
(PID.TID 0000.0001)    Atmospheric temperature starts at                     0.
(PID.TID 0000.0001)    Atmospheric temperature period is                  3600.
(PID.TID 0000.0001)    Atmospheric temperature repeat-cycle is               0.
(PID.TID 0000.0001)    Atmospheric temperature is read from file:
(PID.TID 0000.0001)    >> era5/ERA5_tmp2m_degC <<
(PID.TID 0000.0001)    interpolate "atemp" (method=  1 ):
(PID.TID 0000.0001)    lon0=   0.00000, nlon=  1280, lon_inc= 0.2812500
(PID.TID 0000.0001)    lat0= -89.78489, nlat=   640, inc(min,max)= 0.27868 0.28103
(PID.TID 0000.0001) 
(PID.TID 0000.0001)    Atmospheric specific humidity starts at               0.
(PID.TID 0000.0001)    Atmospheric specific humidity period is            3600.
(PID.TID 0000.0001)    Atmospheric specific humidity rep-cycle is            0.
(PID.TID 0000.0001)    Atmospheric specific humidity is read from file:
(PID.TID 0000.0001)    >> era5/ERA5_spfh2m <<
(PID.TID 0000.0001)    interpolate "aqh" (method=  1 ):
(PID.TID 0000.0001)    lon0=   0.00000, nlon=  1280, lon_inc= 0.2812500
(PID.TID 0000.0001)    lat0= -89.78489, nlat=   640, inc(min,max)= 0.27868 0.28103
(PID.TID 0000.0001) 
(PID.TID 0000.0001) // ALLOW_READ_TURBFLUXES:          NOT defined
(PID.TID 0000.0001) // EXF_READ_EVAP:                  NOT defined
(PID.TID 0000.0001) 
(PID.TID 0000.0001)    Precipitation data starts at                       1800.
(PID.TID 0000.0001)    Precipitation data period is                       3600.
(PID.TID 0000.0001)    Precipitation data repeat-cycle is                    0.
(PID.TID 0000.0001)    Precipitation data is read from file:
(PID.TID 0000.0001)    >> era5/ERA5_rain <<
(PID.TID 0000.0001)    interpolate "precip" (method=  1 ):
(PID.TID 0000.0001)    lon0=   0.00000, nlon=  1280, lon_inc= 0.2812500
(PID.TID 0000.0001)    lat0= -89.78489, nlat=   640, inc(min,max)= 0.27868 0.28103
(PID.TID 0000.0001) 
(PID.TID 0000.0001) // ALLOW_RUNOFF:                       defined
(PID.TID 0000.0001)    Runoff data period is                               -12.
(PID.TID 0000.0001)    Runoff data is read from file:
(PID.TID 0000.0001)    >> runoff1p2472-360x180x12.bin <<
(PID.TID 0000.0001)    interpolate "runoff" (method=  1 ):
(PID.TID 0000.0001)    lon0=   0.50000, nlon=   360, lon_inc= 1.0000000
(PID.TID 0000.0001)    lat0= -89.50000, nlat=   180, lat_inc= 1.0000000
(PID.TID 0000.0001) 
(PID.TID 0000.0001) // ALLOW_RUNOFTEMP:                NOT defined
(PID.TID 0000.0001) // ALLOW_SALTFLX:                      defined
(PID.TID 0000.0001) 
(PID.TID 0000.0001)    Downward shortwave flux starts at                  1800.
(PID.TID 0000.0001)    Downward shortwave flux period is                  3600.
(PID.TID 0000.0001)    Downward shortwave flux repeat-cycle is               0.
(PID.TID 0000.0001)    Downward shortwave flux is read from file:
(PID.TID 0000.0001)    >> era5/ERA5_dsw <<
(PID.TID 0000.0001)    interpolate "swdown" (method=  1 ):
(PID.TID 0000.0001)    lon0=   0.00000, nlon=  1280, lon_inc= 0.2812500
(PID.TID 0000.0001)    lat0= -89.78489, nlat=   640, inc(min,max)= 0.27868 0.28103
(PID.TID 0000.0001) 
(PID.TID 0000.0001)    Downward longwave flux starts at                   1800.
(PID.TID 0000.0001)    Downward longwave flux period is                   3600.
(PID.TID 0000.0001)    Downward longwave flux repeat-cycle is                0.
(PID.TID 0000.0001)    Downward longwave flux is read from file:
(PID.TID 0000.0001)    >> era5/ERA5_dlw <<
(PID.TID 0000.0001)    interpolate "lwdown" (method=  1 ):
(PID.TID 0000.0001)    lon0=   0.00000, nlon=  1280, lon_inc= 0.2812500
(PID.TID 0000.0001)    lat0= -89.78489, nlat=   640, inc(min,max)= 0.27868 0.28103
(PID.TID 0000.0001) 
(PID.TID 0000.0001)    Atmospheric pressure forcing starts at                0.
(PID.TID 0000.0001)    Atmospheric pressure forcing period is             3600.
(PID.TID 0000.0001)    Atmospheric pressure forcing rep-cycle is             0.
(PID.TID 0000.0001)    Atmospheric pressure forcing is read from file:
(PID.TID 0000.0001)    >> era5/ERA5_pres <<
(PID.TID 0000.0001)    interpolate "apressure" (method=  1 ):
(PID.TID 0000.0001)    lon0=   0.00000, nlon=  1280, lon_inc= 0.2812500
(PID.TID 0000.0001)    lat0= -89.78489, nlat=   640, inc(min,max)= 0.27868 0.28103
(PID.TID 0000.0001) 
(PID.TID 0000.0001)    Tidal geopotential starts at                          0.
(PID.TID 0000.0001)    Tidal geopotential period is                       3600.
(PID.TID 0000.0001)    Tidal geopotential repeat-cycle is                    0.
(PID.TID 0000.0001)    Tidal geopotential is read from file:
(PID.TID 0000.0001)    >> tide_IAU_EARTH <<
(PID.TID 0000.0001)    interpolate "tidePot" (method=  1 ):
(PID.TID 0000.0001)    lon0=   0.00000, nlon=   360, lon_inc= 1.0000000
(PID.TID 0000.0001)    lat0= -90.00000, nlat=   181, lat_inc= 1.0000000
(PID.TID 0000.0001) 
(PID.TID 0000.0001) // =======================================================
(PID.TID 0000.0001) // External forcing (EXF) climatology configuration :
(PID.TID 0000.0001) // =======================================================
(PID.TID 0000.0001) 
(PID.TID 0000.0001) // ALLOW_CLIMSST_RELAXATION:       NOT defined
(PID.TID 0000.0001) 
(PID.TID 0000.0001) // ALLOW_CLIMSSS_RELAXATION:       NOT defined
(PID.TID 0000.0001) 
(PID.TID 0000.0001) // =======================================================
(PID.TID 0000.0001) // External forcing (EXF) configuration  >>> END <<<
(PID.TID 0000.0001) // =======================================================
(PID.TID 0000.0001) 
(PID.TID 0000.0001) ------------------------------------------------------------
(PID.TID 0000.0001) DIAGNOSTICS_SET_LEVELS: done
(PID.TID 0000.0001)  Total Nb of available Diagnostics: ndiagt=   213
(PID.TID 0000.0001)  write list of available Diagnostics to file: available_diagnostics.log
(PID.TID 0000.0001) SETDIAG: Allocate  1 x  1 Levels for Diagnostic #    23 ETAN
(PID.TID 0000.0001) SETDIAG: Allocate  1 x  1 Levels for Diagnostic #    80 oceTAUX
(PID.TID 0000.0001) SETDIAG: Allocate  1 x  1 Levels for Diagnostic #    81 oceTAUY
(PID.TID 0000.0001) SETDIAG: Allocate  1 x  1 Levels for Diagnostic #   185 EXFuwind
(PID.TID 0000.0001) SETDIAG: Allocate  1 x  1 Levels for Diagnostic #   186 EXFvwind
(PID.TID 0000.0001) SETDIAG: Allocate100 x  1 Levels for Diagnostic #    26 THETA
(PID.TID 0000.0001) SETDIAG: Allocate100 x  1 Levels for Diagnostic #    27 SALT
(PID.TID 0000.0001) SETDIAG: Allocate100 x  1 Levels for Diagnostic #    30 UVEL
(PID.TID 0000.0001) SETDIAG: Allocate100 x  1 Levels for Diagnostic #    31 VVEL
(PID.TID 0000.0001) SETDIAG: Allocate100 x  1 Levels for Diagnostic #    32 WVEL
(PID.TID 0000.0001) SETDIAG: Allocate100 x  1 Levels for Diagnostic #    36 UVELSQ
(PID.TID 0000.0001) SETDIAG: Allocate100 x  1 Levels for Diagnostic #    37 VVELSQ
(PID.TID 0000.0001) SETDIAG: Allocate100 x  1 Levels for Diagnostic #    52 WTHMASS
(PID.TID 0000.0001) SETDIAG: Allocate100 x  1 Levels for Diagnostic #    55 WSLTMASS
(PID.TID 0000.0001)   space allocated for all diagnostics:     905 levels
(PID.TID 0000.0001)   set mate pointer for diag #    80  oceTAUX  , Parms: UU      U1 , mate:    81
(PID.TID 0000.0001)   set mate pointer for diag #    81  oceTAUY  , Parms: VV      U1 , mate:    80
(PID.TID 0000.0001)   set mate pointer for diag #    30  UVEL     , Parms: UUR     MR , mate:    31
(PID.TID 0000.0001)   set mate pointer for diag #    31  VVEL     , Parms: VVR     MR , mate:    30
(PID.TID 0000.0001)   set mate pointer for diag #    36  UVELSQ   , Parms: UURP    MR , mate:    37
(PID.TID 0000.0001)   set mate pointer for diag #    37  VVELSQ   , Parms: VVRP    MR , mate:    36
(PID.TID 0000.0001) DIAGNOSTICS_SET_POINTERS: Set levels for Outp.Stream: diags/surface
(PID.TID 0000.0001)  Levels:       1.
(PID.TID 0000.0001) DIAGNOSTICS_SET_POINTERS: Set levels for Outp.Stream: diags/interior
(PID.TID 0000.0001)  Levels:       1.   2.   3.   4.   5.   6.   7.   8.   9.  10.  11.  12.  13.  14.  15.  16.  17.  18.  19.  20.
(PID.TID 0000.0001)  Levels:      21.  22.  23.  24.  25.  26.  27.  28.  29.  30.  31.  32.  33.  34.  35.  36.  37.  38.  39.  40.
(PID.TID 0000.0001)  Levels:      41.  42.  43.  44.  45.  46.  47.  48.  49.  50.  51.  52.  53.  54.  55.  56.  57.  58.  59.  60.
(PID.TID 0000.0001)  Levels:      61.  62.  63.  64.  65.  66.  67.  68.  69.  70.  71.  72.  73.  74.  75.  76.  77.  78.  79.  80.
(PID.TID 0000.0001)  Levels:      81.  82.  83.  84.  85.  86.  87.  88.  89.  90.  91.  92.  93.  94.  95.  96.  97.  98.  99. 100.
(PID.TID 0000.0001) DIAGNOSTICS_SET_POINTERS: done
(PID.TID 0000.0001) ------------------------------------------------------------
(PID.TID 0000.0001) DIAGSTATS_SET_REGIONS: define no region
(PID.TID 0000.0001) ------------------------------------------------------------
(PID.TID 0000.0001)   space allocated for all stats-diags:       0 levels
(PID.TID 0000.0001) DIAGSTATS_SET_POINTERS: done
(PID.TID 0000.0001) ------------------------------------------------------------
(PID.TID 0000.0001) %MON fCori_max                    =   1.0041453744604E-04
(PID.TID 0000.0001) %MON fCori_min                    =   6.5455127240189E-05
(PID.TID 0000.0001) %MON fCori_mean                   =   8.4108169069800E-05
(PID.TID 0000.0001) %MON fCori_sd                     =   1.0123559863785E-05
(PID.TID 0000.0001) %MON fCoriG_max                   =   1.0038858482075E-04
(PID.TID 0000.0001) %MON fCoriG_min                   =   6.5416191986868E-05
(PID.TID 0000.0001) %MON fCoriG_mean                  =   8.4075736074280E-05
(PID.TID 0000.0001) %MON fCoriG_sd                    =   1.0127339310370E-05
(PID.TID 0000.0001) %MON fCoriCos_max                 =   1.3032901623502E-04
(PID.TID 0000.0001) %MON fCoriCos_min                 =   1.0576836400510E-04
(PID.TID 0000.0001) %MON fCoriCos_mean                =   1.1849999056980E-04
(PID.TID 0000.0001) %MON fCoriCos_sd                  =   7.1489734356779E-06
(PID.TID 0000.0001) INI_CG2D: CG2D normalisation factor =  1.4987118910715993E-04
(PID.TID 0000.0001) INI_CG2D: cg2dTolerance = 7.057349561527589E-12 (Area=1.1301464310E+13)
(PID.TID 0000.0001) 
(PID.TID 0000.0001) // =======================================================
(PID.TID 0000.0001) // Model configuration
(PID.TID 0000.0001) // =======================================================
(PID.TID 0000.0001) //
(PID.TID 0000.0001) // "Physical" paramters ( PARM01 in namelist )
(PID.TID 0000.0001) //
(PID.TID 0000.0001) buoyancyRelation = /* Type of relation to get Buoyancy */
(PID.TID 0000.0001)               'OCEANIC'
(PID.TID 0000.0001)     ;
(PID.TID 0000.0001) fluidIsAir   =  /* fluid major constituent is Air */
(PID.TID 0000.0001)                   F
(PID.TID 0000.0001)     ;
(PID.TID 0000.0001) fluidIsWater =  /* fluid major constituent is Water */
(PID.TID 0000.0001)                   T
(PID.TID 0000.0001)     ;
(PID.TID 0000.0001) usingPCoords =  /* use p (or p*) vertical coordinate */
(PID.TID 0000.0001)                   F
(PID.TID 0000.0001)     ;
(PID.TID 0000.0001) usingZCoords =  /* use z (or z*) vertical coordinate */
(PID.TID 0000.0001)                   T
(PID.TID 0000.0001)     ;
(PID.TID 0000.0001) tRef =   /* Reference temperature profile ( oC or K ) */
(PID.TID 0000.0001)     5 @  1.889000000000000E+01,             /* K =  1:  5 */
(PID.TID 0000.0001)                 1.887000000000000E+01,      /* K =  6 */
(PID.TID 0000.0001)                 1.885000000000000E+01,      /* K =  7 */
(PID.TID 0000.0001)                 1.882000000000000E+01,      /* K =  8 */
(PID.TID 0000.0001)                 1.880000000000000E+01,      /* K =  9 */
(PID.TID 0000.0001)                 1.873000000000000E+01,      /* K = 10 */
(PID.TID 0000.0001)                 1.863000000000000E+01,      /* K = 11 */
(PID.TID 0000.0001)                 1.849000000000000E+01,      /* K = 12 */
(PID.TID 0000.0001)                 1.828000000000000E+01,      /* K = 13 */
(PID.TID 0000.0001)                 1.808000000000000E+01,      /* K = 14 */
(PID.TID 0000.0001)                 1.786000000000000E+01,      /* K = 15 */
(PID.TID 0000.0001)                 1.763000000000000E+01,      /* K = 16 */
(PID.TID 0000.0001)                 1.740000000000000E+01,      /* K = 17 */
(PID.TID 0000.0001)                 1.718000000000000E+01,      /* K = 18 */
(PID.TID 0000.0001)                 1.695000000000000E+01,      /* K = 19 */
(PID.TID 0000.0001)                 1.673000000000000E+01,      /* K = 20 */
(PID.TID 0000.0001)                 1.652000000000000E+01,      /* K = 21 */
(PID.TID 0000.0001)                 1.631000000000000E+01,      /* K = 22 */
(PID.TID 0000.0001)                 1.610000000000000E+01,      /* K = 23 */
(PID.TID 0000.0001)                 1.589000000000000E+01,      /* K = 24 */
(PID.TID 0000.0001)                 1.569000000000000E+01,      /* K = 25 */
(PID.TID 0000.0001)                 1.549000000000000E+01,      /* K = 26 */
(PID.TID 0000.0001)                 1.528000000000000E+01,      /* K = 27 */
(PID.TID 0000.0001)                 1.508000000000000E+01,      /* K = 28 */
(PID.TID 0000.0001)                 1.488000000000000E+01,      /* K = 29 */
(PID.TID 0000.0001)                 1.467000000000000E+01,      /* K = 30 */
(PID.TID 0000.0001)                 1.447000000000000E+01,      /* K = 31 */
(PID.TID 0000.0001)                 1.425000000000000E+01,      /* K = 32 */
(PID.TID 0000.0001)                 1.403000000000000E+01,      /* K = 33 */
(PID.TID 0000.0001)                 1.380000000000000E+01,      /* K = 34 */
(PID.TID 0000.0001)                 1.355000000000000E+01,      /* K = 35 */
(PID.TID 0000.0001)                 1.329000000000000E+01,      /* K = 36 */
(PID.TID 0000.0001)                 1.301000000000000E+01,      /* K = 37 */
(PID.TID 0000.0001)                 1.273000000000000E+01,      /* K = 38 */
(PID.TID 0000.0001)                 1.242000000000000E+01,      /* K = 39 */
(PID.TID 0000.0001)                 1.211000000000000E+01,      /* K = 40 */
(PID.TID 0000.0001)                 1.178000000000000E+01,      /* K = 41 */
(PID.TID 0000.0001)                 1.143000000000000E+01,      /* K = 42 */
(PID.TID 0000.0001)                 1.107000000000000E+01,      /* K = 43 */
(PID.TID 0000.0001)                 1.070000000000000E+01,      /* K = 44 */
(PID.TID 0000.0001)                 1.031000000000000E+01,      /* K = 45 */
(PID.TID 0000.0001)                 9.930000000000000E+00,      /* K = 46 */
(PID.TID 0000.0001)                 9.529999999999999E+00,      /* K = 47 */
(PID.TID 0000.0001)                 9.109999999999999E+00,      /* K = 48 */
(PID.TID 0000.0001)                 8.710000000000001E+00,      /* K = 49 */
(PID.TID 0000.0001)                 8.289999999999999E+00,      /* K = 50 */
(PID.TID 0000.0001)                 7.890000000000000E+00,      /* K = 51 */
(PID.TID 0000.0001)                 7.510000000000000E+00,      /* K = 52 */
(PID.TID 0000.0001)                 7.130000000000000E+00,      /* K = 53 */
(PID.TID 0000.0001)                 6.780000000000000E+00,      /* K = 54 */
(PID.TID 0000.0001)                 6.440000000000000E+00,      /* K = 55 */
(PID.TID 0000.0001)                 6.110000000000000E+00,      /* K = 56 */
(PID.TID 0000.0001)                 5.810000000000000E+00,      /* K = 57 */
(PID.TID 0000.0001)                 5.510000000000000E+00,      /* K = 58 */
(PID.TID 0000.0001)                 5.230000000000000E+00,      /* K = 59 */
(PID.TID 0000.0001)                 4.970000000000000E+00,      /* K = 60 */
(PID.TID 0000.0001)                 4.730000000000000E+00,      /* K = 61 */
(PID.TID 0000.0001)                 4.510000000000000E+00,      /* K = 62 */
(PID.TID 0000.0001)                 4.300000000000000E+00,      /* K = 63 */
(PID.TID 0000.0001)                 4.110000000000000E+00,      /* K = 64 */
(PID.TID 0000.0001)                 3.940000000000000E+00,      /* K = 65 */
(PID.TID 0000.0001)                 3.780000000000000E+00,      /* K = 66 */
(PID.TID 0000.0001)                 3.630000000000000E+00,      /* K = 67 */
(PID.TID 0000.0001)                 3.500000000000000E+00,      /* K = 68 */
(PID.TID 0000.0001)                 3.380000000000000E+00,      /* K = 69 */
(PID.TID 0000.0001)                 3.250000000000000E+00,      /* K = 70 */
(PID.TID 0000.0001)                 3.140000000000000E+00,      /* K = 71 */
(PID.TID 0000.0001)                 3.040000000000000E+00,      /* K = 72 */
(PID.TID 0000.0001)                 2.940000000000000E+00,      /* K = 73 */
(PID.TID 0000.0001)                 2.830000000000000E+00,      /* K = 74 */
(PID.TID 0000.0001)                 2.740000000000000E+00,      /* K = 75 */
(PID.TID 0000.0001)                 2.640000000000000E+00,      /* K = 76 */
(PID.TID 0000.0001)                 2.540000000000000E+00,      /* K = 77 */
(PID.TID 0000.0001)                 2.450000000000000E+00,      /* K = 78 */
(PID.TID 0000.0001)                 2.360000000000000E+00,      /* K = 79 */
(PID.TID 0000.0001)                 2.270000000000000E+00,      /* K = 80 */
(PID.TID 0000.0001)                 2.190000000000000E+00,      /* K = 81 */
(PID.TID 0000.0001)                 2.100000000000000E+00,      /* K = 82 */
(PID.TID 0000.0001)                 2.030000000000000E+00,      /* K = 83 */
(PID.TID 0000.0001)                 1.950000000000000E+00,      /* K = 84 */
(PID.TID 0000.0001)                 1.860000000000000E+00,      /* K = 85 */
(PID.TID 0000.0001)                 1.780000000000000E+00,      /* K = 86 */
(PID.TID 0000.0001)                 1.700000000000000E+00,      /* K = 87 */
(PID.TID 0000.0001)                 1.630000000000000E+00,      /* K = 88 */
(PID.TID 0000.0001)                 1.550000000000000E+00,      /* K = 89 */
(PID.TID 0000.0001)                 1.480000000000000E+00,      /* K = 90 */
(PID.TID 0000.0001)                 1.410000000000000E+00,      /* K = 91 */
(PID.TID 0000.0001)                 1.340000000000000E+00,      /* K = 92 */
(PID.TID 0000.0001)                 1.270000000000000E+00,      /* K = 93 */
(PID.TID 0000.0001)                 1.200000000000000E+00,      /* K = 94 */
(PID.TID 0000.0001)                 1.130000000000000E+00,      /* K = 95 */
(PID.TID 0000.0001)                 1.060000000000000E+00,      /* K = 96 */
(PID.TID 0000.0001)                 1.000000000000000E+00,      /* K = 97 */
(PID.TID 0000.0001)                 9.600000000000000E-01,      /* K = 98 */
(PID.TID 0000.0001)                 9.300000000000000E-01,      /* K = 99 */
(PID.TID 0000.0001)                 9.100000000000000E-01       /* K =100 */
(PID.TID 0000.0001)     ;
(PID.TID 0000.0001) sRef =   /* Reference salinity profile ( psu ) */
(PID.TID 0000.0001)     6 @  3.484000000000000E+01,             /* K =  1:  6 */
(PID.TID 0000.0001)     3 @  3.485000000000000E+01,             /* K =  7:  9 */
(PID.TID 0000.0001)                 3.486000000000000E+01,      /* K = 10 */
(PID.TID 0000.0001)                 3.487000000000000E+01,      /* K = 11 */
(PID.TID 0000.0001)                 3.488000000000000E+01,      /* K = 12 */
(PID.TID 0000.0001)                 3.490000000000000E+01,      /* K = 13 */
(PID.TID 0000.0001)                 3.491000000000000E+01,      /* K = 14 */
(PID.TID 0000.0001)                 3.493000000000000E+01,      /* K = 15 */
(PID.TID 0000.0001)                 3.495000000000000E+01,      /* K = 16 */
(PID.TID 0000.0001)                 3.496000000000000E+01,      /* K = 17 */
(PID.TID 0000.0001)                 3.498000000000000E+01,      /* K = 18 */
(PID.TID 0000.0001)                 3.499000000000000E+01,      /* K = 19 */
(PID.TID 0000.0001)                 3.500000000000000E+01,      /* K = 20 */
(PID.TID 0000.0001)                 3.501000000000000E+01,      /* K = 21 */
(PID.TID 0000.0001)                 3.502000000000000E+01,      /* K = 22 */
(PID.TID 0000.0001)                 3.503000000000000E+01,      /* K = 23 */
(PID.TID 0000.0001)                 3.504000000000000E+01,      /* K = 24 */
(PID.TID 0000.0001)                 3.505000000000000E+01,      /* K = 25 */
(PID.TID 0000.0001)                 3.506000000000000E+01,      /* K = 26 */
(PID.TID 0000.0001)     7 @  3.507000000000000E+01,             /* K = 27: 33 */
(PID.TID 0000.0001)                 3.506000000000000E+01,      /* K = 34 */
(PID.TID 0000.0001)                 3.505000000000000E+01,      /* K = 35 */
(PID.TID 0000.0001)                 3.504000000000000E+01,      /* K = 36 */
(PID.TID 0000.0001)                 3.503000000000000E+01,      /* K = 37 */
(PID.TID 0000.0001)                 3.502000000000000E+01,      /* K = 38 */
(PID.TID 0000.0001)                 3.501000000000000E+01,      /* K = 39 */
(PID.TID 0000.0001)                 3.499000000000000E+01,      /* K = 40 */
(PID.TID 0000.0001)                 3.497000000000000E+01,      /* K = 41 */
(PID.TID 0000.0001)                 3.495000000000000E+01,      /* K = 42 */
(PID.TID 0000.0001)                 3.492000000000000E+01,      /* K = 43 */
(PID.TID 0000.0001)                 3.490000000000000E+01,      /* K = 44 */
(PID.TID 0000.0001)                 3.487000000000000E+01,      /* K = 45 */
(PID.TID 0000.0001)                 3.484000000000000E+01,      /* K = 46 */
(PID.TID 0000.0001)                 3.481000000000000E+01,      /* K = 47 */
(PID.TID 0000.0001)                 3.478000000000000E+01,      /* K = 48 */
(PID.TID 0000.0001)                 3.475000000000000E+01,      /* K = 49 */
(PID.TID 0000.0001)                 3.472000000000000E+01,      /* K = 50 */
(PID.TID 0000.0001)                 3.469000000000000E+01,      /* K = 51 */
(PID.TID 0000.0001)                 3.467000000000000E+01,      /* K = 52 */
(PID.TID 0000.0001)                 3.465000000000000E+01,      /* K = 53 */
(PID.TID 0000.0001)                 3.462000000000000E+01,      /* K = 54 */
(PID.TID 0000.0001)                 3.461000000000000E+01,      /* K = 55 */
(PID.TID 0000.0001)                 3.460000000000000E+01,      /* K = 56 */
(PID.TID 0000.0001)     2 @  3.459000000000000E+01,             /* K = 57: 58 */
(PID.TID 0000.0001)                 3.458000000000000E+01,      /* K = 59 */
(PID.TID 0000.0001)     2 @  3.459000000000000E+01,             /* K = 60: 61 */
(PID.TID 0000.0001)     2 @  3.460000000000000E+01,             /* K = 62: 63 */
(PID.TID 0000.0001)                 3.461000000000000E+01,      /* K = 64 */
(PID.TID 0000.0001)                 3.462000000000000E+01,      /* K = 65 */
(PID.TID 0000.0001)                 3.463000000000000E+01,      /* K = 66 */
(PID.TID 0000.0001)                 3.464000000000000E+01,      /* K = 67 */
(PID.TID 0000.0001)                 3.465000000000000E+01,      /* K = 68 */
(PID.TID 0000.0001)                 3.466000000000000E+01,      /* K = 69 */
(PID.TID 0000.0001)     2 @  3.467000000000000E+01,             /* K = 70: 71 */
(PID.TID 0000.0001)                 3.468000000000000E+01,      /* K = 72 */
(PID.TID 0000.0001)                 3.469000000000000E+01,      /* K = 73 */
(PID.TID 0000.0001)                 3.470000000000000E+01,      /* K = 74 */
(PID.TID 0000.0001)     2 @  3.471000000000000E+01,             /* K = 75: 76 */
(PID.TID 0000.0001)     2 @  3.472000000000000E+01,             /* K = 77: 78 */
(PID.TID 0000.0001)     3 @  3.473000000000000E+01,             /* K = 79: 81 */
(PID.TID 0000.0001)     4 @  3.474000000000000E+01,             /* K = 82: 85 */
(PID.TID 0000.0001)                 3.475000000000000E+01,      /* K = 86 */
(PID.TID 0000.0001)     8 @  3.474000000000000E+01,             /* K = 87: 94 */
(PID.TID 0000.0001)     6 @  3.473000000000000E+01              /* K = 95:100 */
(PID.TID 0000.0001)     ;
(PID.TID 0000.0001) useStrainTensionVisc= /* Use StrainTension Form of Viscous Operator */
(PID.TID 0000.0001)                   F
(PID.TID 0000.0001)     ;
(PID.TID 0000.0001) useVariableVisc = /* Use variable horizontal viscosity */
(PID.TID 0000.0001)                   T
(PID.TID 0000.0001)     ;
(PID.TID 0000.0001) useHarmonicVisc = /* Use harmonic horizontal viscosity */
(PID.TID 0000.0001)                   F
(PID.TID 0000.0001)     ;
(PID.TID 0000.0001) useBiharmonicVisc= /* Use biharmonic horiz.  viscosity */
(PID.TID 0000.0001)                   T
(PID.TID 0000.0001)     ;
(PID.TID 0000.0001) useSmag3D = /* Use isotropic 3-D Smagorinsky viscosity */
(PID.TID 0000.0001)                   F
(PID.TID 0000.0001)     ;
(PID.TID 0000.0001) viscAh  =   /* Lateral harmonic viscosity ( m^2/s ) */
(PID.TID 0000.0001)                 0.000000000000000E+00
(PID.TID 0000.0001)     ;
(PID.TID 0000.0001) viscAhMax = /* Maximum lateral harmonic viscosity ( m^2/s ) */
(PID.TID 0000.0001)                 1.000000000000000E+21
(PID.TID 0000.0001)     ;
(PID.TID 0000.0001) viscAhGrid = /* Grid dependent lateral harmonic viscosity ( non-dim. ) */
(PID.TID 0000.0001)                 0.000000000000000E+00
(PID.TID 0000.0001)     ;
(PID.TID 0000.0001) useFullLeith = /* Use Full Form of Leith Viscosity on/off flag*/
(PID.TID 0000.0001)                   F
(PID.TID 0000.0001)     ;
(PID.TID 0000.0001) useAreaViscLength = /* Use area for visc length instead of geom. mean*/
(PID.TID 0000.0001)                   T
(PID.TID 0000.0001)     ;
(PID.TID 0000.0001) viscC2leith = /* Leith harmonic visc. factor (on grad(vort),non-dim.) */
(PID.TID 0000.0001)                 0.000000000000000E+00
(PID.TID 0000.0001)     ;
(PID.TID 0000.0001) viscC2leithD = /* Leith harmonic viscosity factor (on grad(div),non-dim.)*/
(PID.TID 0000.0001)                 0.000000000000000E+00
(PID.TID 0000.0001)     ;
(PID.TID 0000.0001) viscC2smag = /* Smagorinsky harmonic viscosity factor (non-dim.) */
(PID.TID 0000.0001)                 0.000000000000000E+00
(PID.TID 0000.0001)     ;
(PID.TID 0000.0001) viscA4  =   /* Lateral biharmonic viscosity ( m^4/s ) */
(PID.TID 0000.0001)                 0.000000000000000E+00
(PID.TID 0000.0001)     ;
(PID.TID 0000.0001) viscA4Max = /* Maximum biharmonic viscosity ( m^2/s ) */
(PID.TID 0000.0001)                 1.000000000000000E+21
(PID.TID 0000.0001)     ;
(PID.TID 0000.0001) viscA4Grid = /* Grid dependent biharmonic viscosity ( non-dim. ) */
(PID.TID 0000.0001)                 0.000000000000000E+00
(PID.TID 0000.0001)     ;
(PID.TID 0000.0001) viscC4leith = /* Leith biharm viscosity factor (on grad(vort), non-dim.)*/
(PID.TID 0000.0001)                 2.000000000000000E+00
(PID.TID 0000.0001)     ;
(PID.TID 0000.0001) viscC4leithD = /* Leith biharm viscosity factor (on grad(div), non-dim.) */
(PID.TID 0000.0001)                 2.000000000000000E+00
(PID.TID 0000.0001)     ;
(PID.TID 0000.0001) viscC4Smag = /* Smagorinsky biharm viscosity factor (non-dim) */
(PID.TID 0000.0001)                 0.000000000000000E+00
(PID.TID 0000.0001)     ;
(PID.TID 0000.0001) no_slip_sides =  /* Viscous BCs: No-slip sides */
(PID.TID 0000.0001)                   T
(PID.TID 0000.0001)     ;
(PID.TID 0000.0001) sideDragFactor = /* side-drag scaling factor (non-dim) */
(PID.TID 0000.0001)                 2.000000000000000E+00
(PID.TID 0000.0001)     ;
(PID.TID 0000.0001) viscArNr = /* vertical profile of vertical viscosity ( m^2/s )*/
(PID.TID 0000.0001)   100 @  5.000000000000000E-04              /* K =  1:100 */
(PID.TID 0000.0001)     ;
(PID.TID 0000.0001) no_slip_bottom =  /* Viscous BCs: No-slip bottom */
(PID.TID 0000.0001)                   T
(PID.TID 0000.0001)     ;
(PID.TID 0000.0001) bottomVisc_pCell = /* Partial-cell in bottom Visc. BC */
(PID.TID 0000.0001)                   F
(PID.TID 0000.0001)     ;
(PID.TID 0000.0001) bottomDragLinear = /* linear bottom-drag coefficient ( m/s ) */
(PID.TID 0000.0001)                 0.000000000000000E+00
(PID.TID 0000.0001)     ;
(PID.TID 0000.0001) bottomDragQuadratic = /* quadratic bottom-drag coefficient (-) */
(PID.TID 0000.0001)                 2.000000000000000E-03
(PID.TID 0000.0001)     ;
(PID.TID 0000.0001) selectBotDragQuadr = /* select quadratic bottom drag options */
(PID.TID 0000.0001)                       0
(PID.TID 0000.0001)     ;
(PID.TID 0000.0001) diffKhT =   /* Laplacian diffusion of heat laterally ( m^2/s ) */
(PID.TID 0000.0001)                 0.000000000000000E+00
(PID.TID 0000.0001)     ;
(PID.TID 0000.0001) diffK4T =   /* Biharmonic diffusion of heat laterally ( m^4/s ) */
(PID.TID 0000.0001)                 0.000000000000000E+00
(PID.TID 0000.0001)     ;
(PID.TID 0000.0001) diffKhS =   /* Laplacian diffusion of salt laterally ( m^2/s ) */
(PID.TID 0000.0001)                 0.000000000000000E+00
(PID.TID 0000.0001)     ;
(PID.TID 0000.0001) diffK4S =   /* Biharmonic diffusion of salt laterally ( m^4/s ) */
(PID.TID 0000.0001)                 0.000000000000000E+00
(PID.TID 0000.0001)     ;
(PID.TID 0000.0001) diffKrNrT = /* vertical profile of vertical diffusion of Temp ( m^2/s )*/
(PID.TID 0000.0001)   100 @  1.000000000000000E-05              /* K =  1:100 */
(PID.TID 0000.0001)     ;
(PID.TID 0000.0001) diffKrNrS = /* vertical profile of vertical diffusion of Salt ( m^2/s )*/
(PID.TID 0000.0001)   100 @  1.000000000000000E-05              /* K =  1:100 */
(PID.TID 0000.0001)     ;
(PID.TID 0000.0001) diffKrBL79surf = /* Surface diffusion for Bryan and Lewis 79 ( m^2/s ) */
(PID.TID 0000.0001)                 0.000000000000000E+00
(PID.TID 0000.0001)     ;
(PID.TID 0000.0001) diffKrBL79deep = /* Deep diffusion for Bryan and Lewis 1979 ( m^2/s ) */
(PID.TID 0000.0001)                 0.000000000000000E+00
(PID.TID 0000.0001)     ;
(PID.TID 0000.0001) diffKrBL79scl = /* Depth scale for Bryan and Lewis 1979 ( m ) */
(PID.TID 0000.0001)                 2.000000000000000E+02
(PID.TID 0000.0001)     ;
(PID.TID 0000.0001) diffKrBL79Ho = /* Turning depth for Bryan and Lewis 1979 ( m ) */
(PID.TID 0000.0001)                -2.000000000000000E+03
(PID.TID 0000.0001)     ;
(PID.TID 0000.0001) ivdc_kappa = /* Implicit Vertical Diffusivity for Convection ( m^2/s) */
(PID.TID 0000.0001)                 0.000000000000000E+00
(PID.TID 0000.0001)     ;
(PID.TID 0000.0001) hMixCriteria=  /* Criteria for mixed-layer diagnostic */
(PID.TID 0000.0001)                -8.000000000000000E-01
(PID.TID 0000.0001)     ;
(PID.TID 0000.0001) dRhoSmall =  /* Parameter for mixed-layer diagnostic */
(PID.TID 0000.0001)                 1.000000000000000E-06
(PID.TID 0000.0001)     ;
(PID.TID 0000.0001) hMixSmooth=  /* Smoothing parameter for mixed-layer diagnostic */
(PID.TID 0000.0001)                 0.000000000000000E+00
(PID.TID 0000.0001)     ;
(PID.TID 0000.0001) eosType =  /* Type of Equation of State */
(PID.TID 0000.0001)               'JMD95Z'
(PID.TID 0000.0001)     ;
(PID.TID 0000.0001) selectP_inEOS_Zc = /* select pressure to use in EOS (0,1,2,3) */
(PID.TID 0000.0001)                       0
(PID.TID 0000.0001)     0= -g*rhoConst*z ; 1= pRef (from tRef,sRef); 2= Hyd P ; 3= Hyd+NH P
(PID.TID 0000.0001)     ;
(PID.TID 0000.0001) HeatCapacity_Cp =  /* Specific heat capacity ( J/kg/K ) */
(PID.TID 0000.0001)                 3.994000000000000E+03
(PID.TID 0000.0001)     ;
(PID.TID 0000.0001) celsius2K = /* 0 degree Celsius converted to Kelvin ( K ) */
(PID.TID 0000.0001)                 2.731500000000000E+02
(PID.TID 0000.0001)     ;
(PID.TID 0000.0001) rhoConst  = /* Reference density (Boussinesq)  ( kg/m^3 ) */
(PID.TID 0000.0001)                 1.029000000000000E+03
(PID.TID 0000.0001)     ;
(PID.TID 0000.0001) rhoFacC = /* normalized Reference density @ cell-Center (-) */
(PID.TID 0000.0001)   100 @  1.000000000000000E+00              /* K =  1:100 */
(PID.TID 0000.0001)     ;
(PID.TID 0000.0001) rhoFacF = /* normalized Reference density @ W-Interface (-) */
(PID.TID 0000.0001)   101 @  1.000000000000000E+00              /* K =  1:101 */
(PID.TID 0000.0001)     ;
(PID.TID 0000.0001) rhoConstFresh = /* Fresh-water reference density ( kg/m^3 ) */
(PID.TID 0000.0001)                 1.000000000000000E+03
(PID.TID 0000.0001)     ;
(PID.TID 0000.0001) gravity =   /* Gravitational acceleration ( m/s^2 ) */
(PID.TID 0000.0001)                 9.810000000000000E+00
(PID.TID 0000.0001)     ;
(PID.TID 0000.0001) gBaro =   /* Barotropic gravity ( m/s^2 ) */
(PID.TID 0000.0001)                 9.810000000000000E+00
(PID.TID 0000.0001)     ;
(PID.TID 0000.0001) gravFacC = /* gravity factor (vs surf.) @ cell-Center (-) */
(PID.TID 0000.0001)   100 @  1.000000000000000E+00              /* K =  1:100 */
(PID.TID 0000.0001)     ;
(PID.TID 0000.0001) gravFacF = /* gravity factor (vs surf.) @ W-Interface (-) */
(PID.TID 0000.0001)   101 @  1.000000000000000E+00              /* K =  1:101 */
(PID.TID 0000.0001)     ;
(PID.TID 0000.0001) rotationPeriod =   /* Rotation Period ( s ) */
(PID.TID 0000.0001)                 8.616400000000000E+04
(PID.TID 0000.0001)     ;
(PID.TID 0000.0001) omega =   /* Angular velocity ( rad/s ) */
(PID.TID 0000.0001)                 7.292123516990375E-05
(PID.TID 0000.0001)     ;
(PID.TID 0000.0001) f0 =   /* Reference coriolis parameter ( 1/s ) */
(PID.TID 0000.0001)                 1.000000000000000E-04
(PID.TID 0000.0001)     ;
(PID.TID 0000.0001) beta =   /* Beta ( 1/(m.s) ) */
(PID.TID 0000.0001)                 9.999999999999999E-12
(PID.TID 0000.0001)     ;
(PID.TID 0000.0001) fPrime =   /* Second coriolis parameter ( 1/s ) */
(PID.TID 0000.0001)                 0.000000000000000E+00
(PID.TID 0000.0001)     ;
(PID.TID 0000.0001) rigidLid =   /* Rigid lid on/off flag */
(PID.TID 0000.0001)                   F
(PID.TID 0000.0001)     ;
(PID.TID 0000.0001) implicitFreeSurface =   /* Implicit free surface on/off flag */
(PID.TID 0000.0001)                   T
(PID.TID 0000.0001)     ;
(PID.TID 0000.0001) freeSurfFac =   /* Implicit free surface factor */
(PID.TID 0000.0001)                 1.000000000000000E+00
(PID.TID 0000.0001)     ;
(PID.TID 0000.0001) implicSurfPress =  /* Surface Pressure implicit factor (0-1)*/
(PID.TID 0000.0001)                 1.000000000000000E+00
(PID.TID 0000.0001)     ;
(PID.TID 0000.0001) implicDiv2DFlow =  /* Barot. Flow Div. implicit factor (0-1)*/
(PID.TID 0000.0001)                 1.000000000000000E+00
(PID.TID 0000.0001)     ;
(PID.TID 0000.0001) uniformLin_PhiSurf = /* use uniform Bo_surf on/off flag*/
(PID.TID 0000.0001)                   T
(PID.TID 0000.0001)     ;
(PID.TID 0000.0001) uniformFreeSurfLev = /* free-surface level-index is uniform */
(PID.TID 0000.0001)                   T
(PID.TID 0000.0001)     ;
(PID.TID 0000.0001) hFacMin =   /* minimum partial cell factor (hFac) */
(PID.TID 0000.0001)                 2.000000000000000E-01
(PID.TID 0000.0001)     ;
(PID.TID 0000.0001) hFacMinDr = /* minimum partial cell thickness ( m) */
(PID.TID 0000.0001)                 5.000000000000000E+00
(PID.TID 0000.0001)     ;
(PID.TID 0000.0001) exactConserv =  /* Exact Volume Conservation on/off flag*/
(PID.TID 0000.0001)                   T
(PID.TID 0000.0001)     ;
(PID.TID 0000.0001) linFSConserveTr = /* Tracer correction for Lin Free Surface on/off flag*/
(PID.TID 0000.0001)                   F
(PID.TID 0000.0001)     ;
(PID.TID 0000.0001) nonlinFreeSurf = /* Non-linear Free Surf. options (-1,0,1,2,3)*/
(PID.TID 0000.0001)                       0
(PID.TID 0000.0001)      -1,0= Off ; 1,2,3= On, 2=+rescale gU,gV, 3=+update cg2d solv.
(PID.TID 0000.0001)     ;
(PID.TID 0000.0001) hFacInf =   /* lower threshold for hFac (nonlinFreeSurf only)*/
(PID.TID 0000.0001)                 2.000000000000000E-01
(PID.TID 0000.0001)     ;
(PID.TID 0000.0001) hFacSup =   /* upper threshold for hFac (nonlinFreeSurf only)*/
(PID.TID 0000.0001)                 2.000000000000000E+00
(PID.TID 0000.0001)     ;
(PID.TID 0000.0001) select_rStar = /* r* Vertical coord. options (=0 r coord.; >0 uses r*)*/
(PID.TID 0000.0001)                       0
(PID.TID 0000.0001)     ;
(PID.TID 0000.0001) useRealFreshWaterFlux = /* Real Fresh Water Flux on/off flag*/
(PID.TID 0000.0001)                   F
(PID.TID 0000.0001)     ;
(PID.TID 0000.0001) temp_EvPrRn = /* Temp. of Evap/Prec/R (UNSET=use local T)(oC)*/
(PID.TID 0000.0001)                 0.000000000000000E+00
(PID.TID 0000.0001)     ;
(PID.TID 0000.0001) salt_EvPrRn = /* Salin. of Evap/Prec/R (UNSET=use local S)(psu)*/
(PID.TID 0000.0001)                 0.000000000000000E+00
(PID.TID 0000.0001)     ;
(PID.TID 0000.0001) selectAddFluid = /* option for mass source/sink of fluid (=0: off) */
(PID.TID 0000.0001)                       0
(PID.TID 0000.0001)     ;
(PID.TID 0000.0001) temp_addMass = /* Temp. of addMass array (UNSET=use local T)(oC)*/
(PID.TID 0000.0001)                 0.000000000000000E+00
(PID.TID 0000.0001)     ;
(PID.TID 0000.0001) salt_addMass = /* Salin. of addMass array (UNSET=use local S)(psu)*/
(PID.TID 0000.0001)                 0.000000000000000E+00
(PID.TID 0000.0001)     ;
(PID.TID 0000.0001) convertFW2Salt = /* convert F.W. Flux to Salt Flux (-1=use local S)(psu)*/
(PID.TID 0000.0001)                -1.000000000000000E+00
(PID.TID 0000.0001)     ;
(PID.TID 0000.0001) use3Dsolver = /* use 3-D pressure solver on/off flag */
(PID.TID 0000.0001)                   F
(PID.TID 0000.0001)     ;
(PID.TID 0000.0001) nonHydrostatic =  /* Non-Hydrostatic on/off flag */
(PID.TID 0000.0001)                   F
(PID.TID 0000.0001)     ;
(PID.TID 0000.0001) nh_Am2 = /* Non-Hydrostatic terms scaling factor */
(PID.TID 0000.0001)                 1.000000000000000E+00
(PID.TID 0000.0001)     ;
(PID.TID 0000.0001) implicitNHPress = /* Non-Hyd Pressure implicit factor (0-1)*/
(PID.TID 0000.0001)                 1.000000000000000E+00
(PID.TID 0000.0001)     ;
(PID.TID 0000.0001) selectNHfreeSurf = /* Non-Hyd (free-)Surface option */
(PID.TID 0000.0001)                       0
(PID.TID 0000.0001)     ;
(PID.TID 0000.0001) quasiHydrostatic = /* Quasi-Hydrostatic on/off flag */
(PID.TID 0000.0001)                   F
(PID.TID 0000.0001)     ;
(PID.TID 0000.0001) calc_wVelocity = /* vertical velocity calculation on/off flag */
(PID.TID 0000.0001)                   T
(PID.TID 0000.0001)     ;
(PID.TID 0000.0001) momStepping =  /* Momentum equation on/off flag */
(PID.TID 0000.0001)                   T
(PID.TID 0000.0001)     ;
(PID.TID 0000.0001) vectorInvariantMomentum= /* Vector-Invariant Momentum on/off */
(PID.TID 0000.0001)                   T
(PID.TID 0000.0001)     ;
(PID.TID 0000.0001) momAdvection =  /* Momentum advection on/off flag */
(PID.TID 0000.0001)                   T
(PID.TID 0000.0001)     ;
(PID.TID 0000.0001) momViscosity =  /* Momentum viscosity on/off flag */
(PID.TID 0000.0001)                   T
(PID.TID 0000.0001)     ;
(PID.TID 0000.0001) momImplVertAdv= /* Momentum implicit vert. advection on/off*/
(PID.TID 0000.0001)                   F
(PID.TID 0000.0001)     ;
(PID.TID 0000.0001) implicitViscosity = /* Implicit viscosity on/off flag */
(PID.TID 0000.0001)                   T
(PID.TID 0000.0001)     ;
(PID.TID 0000.0001) selectImplicitDrag= /* Implicit bot Drag options (0,1,2)*/
(PID.TID 0000.0001)                       0
(PID.TID 0000.0001)     0= Expl. ; 1= Impl. on provis. Vel ; 2= Fully Impl (with surf.P)
(PID.TID 0000.0001)     ;
(PID.TID 0000.0001) metricTerms =  /* metric-Terms on/off flag */
(PID.TID 0000.0001)                   T
(PID.TID 0000.0001)     ;
(PID.TID 0000.0001) useNHMTerms = /* Non-Hydrostatic Metric-Terms on/off */
(PID.TID 0000.0001)                   F
(PID.TID 0000.0001)     ;
(PID.TID 0000.0001) selectCoriMap = /* Coriolis Map options (0,1,2,3)*/
(PID.TID 0000.0001)                       2
(PID.TID 0000.0001)     0= f-Plane ; 1= Beta-Plane ; 2= Spherical ; 3= read from file
(PID.TID 0000.0001)     ;
(PID.TID 0000.0001) use3dCoriolis = /* 3-D Coriolis on/off flag */
(PID.TID 0000.0001)                   F
(PID.TID 0000.0001)     ;
(PID.TID 0000.0001) useCoriolis =  /* Coriolis on/off flag */
(PID.TID 0000.0001)                   T
(PID.TID 0000.0001)     ;
(PID.TID 0000.0001) useCDscheme =  /* CD scheme on/off flag */
(PID.TID 0000.0001)                   F
(PID.TID 0000.0001)     ;
(PID.TID 0000.0001) useEnergyConservingCoriolis= /* Flx-Form Coriolis scheme flag */
(PID.TID 0000.0001)                   F
(PID.TID 0000.0001)     ;
(PID.TID 0000.0001) useJamartWetPoints= /* Coriolis WetPoints method flag */
(PID.TID 0000.0001)                   F
(PID.TID 0000.0001)     ;
(PID.TID 0000.0001) useJamartMomAdv= /* V.I Non-linear terms Jamart flag */
(PID.TID 0000.0001)                   F
(PID.TID 0000.0001)     ;
(PID.TID 0000.0001) useAbsVorticity= /* V.I Works with f+zeta in Coriolis */
(PID.TID 0000.0001)                   F
(PID.TID 0000.0001)     ;
(PID.TID 0000.0001) selectVortScheme= /* V.I Scheme selector for Vorticity-Term */
(PID.TID 0000.0001)                       0
(PID.TID 0000.0001)    = 0 : enstrophy (Shallow-Water Eq.) conserving scheme by Sadourny, JAS 75
(PID.TID 0000.0001)    = 1 : same as 0 with modified hFac
(PID.TID 0000.0001)    = 2 : energy conserving scheme (used by Sadourny in JAS 75 paper)
(PID.TID 0000.0001)    = 3 : energy (general) and enstrophy (2D, nonDiv.) conserving scheme
(PID.TID 0000.0001)          from Sadourny (Burridge & Haseler, ECMWF Rep.4, 1977)
(PID.TID 0000.0001)     ;
(PID.TID 0000.0001) upwindVorticity= /* V.I Upwind bias vorticity flag */
(PID.TID 0000.0001)                   F
(PID.TID 0000.0001)     ;
(PID.TID 0000.0001) highOrderVorticity= /* V.I High order vort. advect. flag */
(PID.TID 0000.0001)                   T
(PID.TID 0000.0001)     ;
(PID.TID 0000.0001) upwindShear= /* V.I Upwind vertical Shear advection flag */
(PID.TID 0000.0001)                   F
(PID.TID 0000.0001)     ;
(PID.TID 0000.0001) selectKEscheme= /* V.I Kinetic Energy scheme selector */
(PID.TID 0000.0001)                       0
(PID.TID 0000.0001)     ;
(PID.TID 0000.0001) momForcing =  /* Momentum forcing on/off flag */
(PID.TID 0000.0001)                   T
(PID.TID 0000.0001)     ;
(PID.TID 0000.0001) momTidalForcing = /* Momentum Tidal forcing on/off flag */
(PID.TID 0000.0001)                   T
(PID.TID 0000.0001)     ;
(PID.TID 0000.0001) momPressureForcing =  /* Momentum pressure term on/off flag */
(PID.TID 0000.0001)                   T
(PID.TID 0000.0001)     ;
(PID.TID 0000.0001) implicitIntGravWave= /* Implicit Internal Gravity Wave flag */
(PID.TID 0000.0001)                   F
(PID.TID 0000.0001)     ;
(PID.TID 0000.0001) staggerTimeStep =    /* Stagger time stepping on/off flag */
(PID.TID 0000.0001)                   T
(PID.TID 0000.0001)     ;
(PID.TID 0000.0001) doResetHFactors = /* reset thickness factors @ each time-step */
(PID.TID 0000.0001)                   F
(PID.TID 0000.0001)     ;
(PID.TID 0000.0001) multiDimAdvection =  /* enable/disable Multi-Dim Advection */
(PID.TID 0000.0001)                   T
(PID.TID 0000.0001)     ;
(PID.TID 0000.0001) useMultiDimAdvec =   /* Multi-Dim Advection is/is-not used */
(PID.TID 0000.0001)                   T
(PID.TID 0000.0001)     ;
(PID.TID 0000.0001) implicitDiffusion = /* Implicit Diffusion on/off flag */
(PID.TID 0000.0001)                   T
(PID.TID 0000.0001)     ;
(PID.TID 0000.0001) tempStepping =  /* Temperature equation on/off flag */
(PID.TID 0000.0001)                   T
(PID.TID 0000.0001)     ;
(PID.TID 0000.0001) tempAdvection = /* Temperature advection on/off flag */
(PID.TID 0000.0001)                   T
(PID.TID 0000.0001)     ;
(PID.TID 0000.0001) tempImplVertAdv = /* Temp. implicit vert. advection on/off */
(PID.TID 0000.0001)                   F
(PID.TID 0000.0001)     ;
(PID.TID 0000.0001) tempForcing  =  /* Temperature forcing on/off flag */
(PID.TID 0000.0001)                   T
(PID.TID 0000.0001)     ;
(PID.TID 0000.0001) doThetaClimRelax = /* apply SST relaxation on/off flag */
(PID.TID 0000.0001)                   F
(PID.TID 0000.0001)     ;
(PID.TID 0000.0001) tempIsActiveTr = /* Temp. is a dynamically Active Tracer */
(PID.TID 0000.0001)                   T
(PID.TID 0000.0001)     ;
(PID.TID 0000.0001) saltStepping =  /* Salinity equation on/off flag */
(PID.TID 0000.0001)                   T
(PID.TID 0000.0001)     ;
(PID.TID 0000.0001) saltAdvection = /* Salinity advection on/off flag */
(PID.TID 0000.0001)                   T
(PID.TID 0000.0001)     ;
(PID.TID 0000.0001) saltImplVertAdv = /* Sali. implicit vert. advection on/off */
(PID.TID 0000.0001)                   F
(PID.TID 0000.0001)     ;
(PID.TID 0000.0001) saltForcing  =  /* Salinity forcing on/off flag */
(PID.TID 0000.0001)                   T
(PID.TID 0000.0001)     ;
(PID.TID 0000.0001) doSaltClimRelax = /* apply SSS relaxation on/off flag */
(PID.TID 0000.0001)                   F
(PID.TID 0000.0001)     ;
(PID.TID 0000.0001) saltIsActiveTr = /* Salt  is a dynamically Active Tracer */
(PID.TID 0000.0001)                   T
(PID.TID 0000.0001)     ;
(PID.TID 0000.0001)  readBinaryPrec = /* Precision used for reading binary files */
(PID.TID 0000.0001)                      32
(PID.TID 0000.0001)     ;
(PID.TID 0000.0001) writeBinaryPrec = /* Precision used for writing binary files */
(PID.TID 0000.0001)                      32
(PID.TID 0000.0001)     ;
(PID.TID 0000.0001)  rwSuffixType =   /* select format of mds file suffix */
(PID.TID 0000.0001)                       0
(PID.TID 0000.0001)    = 0 : myIter (I10.10) ;   = 1 : 100*myTime (100th sec) ;
(PID.TID 0000.0001)    = 2 : myTime (seconds);   = 3 : myTime/360 (10th of hr);
(PID.TID 0000.0001)    = 4 : myTime/3600 (hours)
(PID.TID 0000.0001)     ;
(PID.TID 0000.0001)  globalFiles = /* write "global" (=not per tile) files */
(PID.TID 0000.0001)                   T
(PID.TID 0000.0001)     ;
(PID.TID 0000.0001)  useSingleCpuIO = /* only master MPI process does I/O */
(PID.TID 0000.0001)                   T
(PID.TID 0000.0001)     ;
(PID.TID 0000.0001)  useSingleCpuInput = /* only master process reads input */
(PID.TID 0000.0001)                   T
(PID.TID 0000.0001)     ;
(PID.TID 0000.0001) /* debLev[*]  : level of debug & auxiliary message printing */
(PID.TID 0000.0001) debLevZero =  0 ; /* level of disabled aux. msg printing */
(PID.TID 0000.0001)    debLevA =  1 ; /* level of minimum  aux. msg printing */
(PID.TID 0000.0001)    debLevB =  2 ; /* level of low aux. print (report read-file opening)*/
(PID.TID 0000.0001)    debLevC =  3 ; /* level of moderate debug prt (most pkgs debug msg) */
(PID.TID 0000.0001)    debLevD =  4 ; /* level of enhanced debug prt (add DEBUG_STATS prt) */
(PID.TID 0000.0001)    debLevE =  5 ; /* level of extensive debug printing */
(PID.TID 0000.0001) debugLevel =  /* select debug printing level */
(PID.TID 0000.0001)                       2
(PID.TID 0000.0001)     ;
(PID.TID 0000.0001)  plotLevel =  /* select PLOT_FIELD printing level */
(PID.TID 0000.0001)                       2
(PID.TID 0000.0001)     ;
(PID.TID 0000.0001) //
(PID.TID 0000.0001) // Elliptic solver(s) paramters ( PARM02 in namelist )
(PID.TID 0000.0001) //
(PID.TID 0000.0001) cg2dMaxIters =   /* Upper limit on 2d con. grad iterations  */
(PID.TID 0000.0001)                    1000
(PID.TID 0000.0001)     ;
(PID.TID 0000.0001) cg2dChkResFreq =   /* 2d con. grad convergence test frequency */
(PID.TID 0000.0001)                       1
(PID.TID 0000.0001)     ;
(PID.TID 0000.0001) cg2dUseMinResSol= /* use cg2d last-iter(=0) / min-resid.(=1) solution */
(PID.TID 0000.0001)                       0
(PID.TID 0000.0001)     ;
(PID.TID 0000.0001) cg2dTargetResidual =   /* 2d con. grad target residual  */
(PID.TID 0000.0001)                 1.000000000000000E-07
(PID.TID 0000.0001)     ;
(PID.TID 0000.0001) cg2dTargetResWunit =   /* CG2d target residual [W units] */
(PID.TID 0000.0001)                 1.000000000000000E-18
(PID.TID 0000.0001)     ;
(PID.TID 0000.0001) cg2dPreCondFreq =   /* Freq. for updating cg2d preconditioner */
(PID.TID 0000.0001)                       1
(PID.TID 0000.0001)     ;
(PID.TID 0000.0001) useSRCGSolver =  /* use single reduction CG solver(s) */
(PID.TID 0000.0001)                   F
(PID.TID 0000.0001)     ;
(PID.TID 0000.0001) printResidualFreq = /* Freq. for printing CG residual */
(PID.TID 0000.0001)                       0
(PID.TID 0000.0001)     ;
(PID.TID 0000.0001) //
(PID.TID 0000.0001) // Time stepping paramters ( PARM03 in namelist )
(PID.TID 0000.0001) //
(PID.TID 0000.0001) deltaTMom =   /* Momentum equation timestep ( s ) */
(PID.TID 0000.0001)                 2.400000000000000E+02
(PID.TID 0000.0001)     ;
(PID.TID 0000.0001) deltaTFreeSurf = /* FreeSurface equation timestep ( s ) */
(PID.TID 0000.0001)                 2.400000000000000E+02
(PID.TID 0000.0001)     ;
(PID.TID 0000.0001) dTtracerLev =  /* Tracer equation timestep ( s ) */
(PID.TID 0000.0001)   100 @  2.400000000000000E+02              /* K =  1:100 */
(PID.TID 0000.0001)     ;
(PID.TID 0000.0001) deltaTClock  =   /* Model clock timestep ( s ) */
(PID.TID 0000.0001)                 2.400000000000000E+02
(PID.TID 0000.0001)     ;
(PID.TID 0000.0001) cAdjFreq =   /* Convective adjustment interval ( s ) */
(PID.TID 0000.0001)                 0.000000000000000E+00
(PID.TID 0000.0001)     ;
(PID.TID 0000.0001) momForcingOutAB = /* =1: take Momentum Forcing out of Adams-Bash. stepping */
(PID.TID 0000.0001)                       1
(PID.TID 0000.0001)     ;
(PID.TID 0000.0001) tracForcingOutAB = /* =1: take T,S,pTr Forcing out of Adams-Bash. stepping */
(PID.TID 0000.0001)                       1
(PID.TID 0000.0001)     ;
(PID.TID 0000.0001) momDissip_In_AB = /* put Dissipation Tendency in Adams-Bash. stepping */
(PID.TID 0000.0001)                   F
(PID.TID 0000.0001)     ;
(PID.TID 0000.0001) doAB_onGtGs = /* apply AB on Tendencies (rather than on T,S)*/
(PID.TID 0000.0001)                   T
(PID.TID 0000.0001)     ;
(PID.TID 0000.0001) abEps =   /* Adams-Bashforth-2 stabilizing weight */
(PID.TID 0000.0001)                 1.000000000000000E-01
(PID.TID 0000.0001)     ;
(PID.TID 0000.0001) applyExchUV_early = /* Apply EXCH to U,V earlier in time-step */
(PID.TID 0000.0001)                   F
(PID.TID 0000.0001)     ;
(PID.TID 0000.0001) pickupStrictlyMatch= /* stop if pickup do not strictly match */
(PID.TID 0000.0001)                   F
(PID.TID 0000.0001)     ;
(PID.TID 0000.0001) nIter0   =   /* Run starting timestep number */
(PID.TID 0000.0001)                       0
(PID.TID 0000.0001)     ;
(PID.TID 0000.0001) nTimeSteps = /* Number of timesteps */
(PID.TID 0000.0001)                      15
(PID.TID 0000.0001)     ;
(PID.TID 0000.0001) nEndIter =   /* Run ending timestep number */
(PID.TID 0000.0001)                      15
(PID.TID 0000.0001)     ;
(PID.TID 0000.0001) baseTime =   /* Model base time ( s ) */
(PID.TID 0000.0001)                 0.000000000000000E+00
(PID.TID 0000.0001)     ;
(PID.TID 0000.0001) startTime =  /* Run start time ( s ) */
(PID.TID 0000.0001)                 0.000000000000000E+00
(PID.TID 0000.0001)     ;
(PID.TID 0000.0001) endTime  =   /* Integration ending time ( s ) */
(PID.TID 0000.0001)                 3.600000000000000E+03
(PID.TID 0000.0001)     ;
(PID.TID 0000.0001) pChkPtFreq = /* Permanent restart/pickup file interval ( s ) */
(PID.TID 0000.0001)                 8.640000000000000E+05
(PID.TID 0000.0001)     ;
(PID.TID 0000.0001) chkPtFreq  = /* Rolling restart/pickup file interval ( s ) */
(PID.TID 0000.0001)                 0.000000000000000E+00
(PID.TID 0000.0001)     ;
(PID.TID 0000.0001) pickup_write_mdsio =   /* Model IO flag. */
(PID.TID 0000.0001)                   T
(PID.TID 0000.0001)     ;
(PID.TID 0000.0001) pickup_read_mdsio =   /* Model IO flag. */
(PID.TID 0000.0001)                   T
(PID.TID 0000.0001)     ;
(PID.TID 0000.0001) writePickupAtEnd =   /* Model IO flag. */
(PID.TID 0000.0001)                   T
(PID.TID 0000.0001)     ;
(PID.TID 0000.0001) dumpFreq =   /* Model state write out interval ( s ). */
(PID.TID 0000.0001)                 0.000000000000000E+00
(PID.TID 0000.0001)     ;
(PID.TID 0000.0001) dumpInitAndLast= /* write out Initial & Last iter. model state */
(PID.TID 0000.0001)                   F
(PID.TID 0000.0001)     ;
(PID.TID 0000.0001) snapshot_mdsio =   /* Model IO flag. */
(PID.TID 0000.0001)                   T
(PID.TID 0000.0001)     ;
(PID.TID 0000.0001) monitorFreq =   /* Monitor output interval ( s ). */
(PID.TID 0000.0001)                 2.400000000000000E+02
(PID.TID 0000.0001)     ;
(PID.TID 0000.0001) monitorSelect = /* select group of variables to monitor */
(PID.TID 0000.0001)                       3
(PID.TID 0000.0001)     ;
(PID.TID 0000.0001) monitor_stdio =   /* Model IO flag. */
(PID.TID 0000.0001)                   T
(PID.TID 0000.0001)     ;
(PID.TID 0000.0001) externForcingPeriod =   /* forcing period (s) */
(PID.TID 0000.0001)                 0.000000000000000E+00
(PID.TID 0000.0001)     ;
(PID.TID 0000.0001) externForcingCycle =   /* period of the cyle (s). */
(PID.TID 0000.0001)                 0.000000000000000E+00
(PID.TID 0000.0001)     ;
(PID.TID 0000.0001) tauThetaClimRelax =   /* relaxation time scale (s) */
(PID.TID 0000.0001)                 0.000000000000000E+00
(PID.TID 0000.0001)     ;
(PID.TID 0000.0001) tauSaltClimRelax =   /* relaxation time scale (s) */
(PID.TID 0000.0001)                 0.000000000000000E+00
(PID.TID 0000.0001)     ;
(PID.TID 0000.0001) latBandClimRelax =   /* max. Lat. where relaxation */
(PID.TID 0000.0001)                 1.800000000000000E+02
(PID.TID 0000.0001)     ;
(PID.TID 0000.0001) //
(PID.TID 0000.0001) // Gridding paramters ( PARM04 in namelist )
(PID.TID 0000.0001) //
(PID.TID 0000.0001) usingCartesianGrid = /* Cartesian coordinates flag ( True/False ) */
(PID.TID 0000.0001)                   F
(PID.TID 0000.0001)     ;
(PID.TID 0000.0001) usingCylindricalGrid = /* Cylindrical coordinates flag ( True/False ) */
(PID.TID 0000.0001)                   F
(PID.TID 0000.0001)     ;
(PID.TID 0000.0001) usingSphericalPolarGrid = /* Spherical coordinates flag ( True/False ) */
(PID.TID 0000.0001)                   T
(PID.TID 0000.0001)     ;
(PID.TID 0000.0001) usingCurvilinearGrid = /* Curvilinear coordinates flag ( True/False ) */
(PID.TID 0000.0001)                   F
(PID.TID 0000.0001)     ;
(PID.TID 0000.0001) useMin4hFacEdges = /* set hFacW,S as minimum of adjacent hFacC factor */
(PID.TID 0000.0001)                   F
(PID.TID 0000.0001)     ;
(PID.TID 0000.0001) interViscAr_pCell = /* account for partial-cell in interior vert. viscosity */
(PID.TID 0000.0001)                   F
(PID.TID 0000.0001)     ;
(PID.TID 0000.0001) interDiffKr_pCell = /* account for partial-cell in interior vert. diffusion */
(PID.TID 0000.0001)                   F
(PID.TID 0000.0001)     ;
(PID.TID 0000.0001) pCellMix_select = /* option to enhance mixing near surface & bottom */
(PID.TID 0000.0001)                       0
(PID.TID 0000.0001)     ;
(PID.TID 0000.0001) selectSigmaCoord = /* Hybrid-Sigma Vert. Coordinate option */
(PID.TID 0000.0001)                       0
(PID.TID 0000.0001)     ;
(PID.TID 0000.0001) rSigmaBnd = /* r/sigma transition ( units of r ==  m ) */
(PID.TID 0000.0001)                 1.234567000000000E+05
(PID.TID 0000.0001)     ;
(PID.TID 0000.0001) rkSign =   /* index orientation relative to vertical coordinate */
(PID.TID 0000.0001)                -1.000000000000000E+00
(PID.TID 0000.0001)     ;
(PID.TID 0000.0001) gravitySign = /* gravity orientation relative to vertical coordinate */
(PID.TID 0000.0001)                -1.000000000000000E+00
(PID.TID 0000.0001)     ;
(PID.TID 0000.0001) seaLev_Z =  /* reference height of sea-level [m] */
(PID.TID 0000.0001)                 0.000000000000000E+00
(PID.TID 0000.0001)     ;
(PID.TID 0000.0001) top_Pres =  /* reference pressure at the top [Pa] */
(PID.TID 0000.0001)                 0.000000000000000E+00
(PID.TID 0000.0001)     ;
(PID.TID 0000.0001) mass2rUnit = /* convert mass per unit area [kg/m2] to r-units [m] */
(PID.TID 0000.0001)                 9.718172983479105E-04
(PID.TID 0000.0001)     ;
(PID.TID 0000.0001) rUnit2mass = /* convert r-units [m] to mass per unit area [kg/m2] */
(PID.TID 0000.0001)                 1.029000000000000E+03
(PID.TID 0000.0001)     ;
(PID.TID 0000.0001) drC =   /* C spacing ( units of r ) */
(PID.TID 0000.0001)                 2.500000000000000E+00,      /* K =  1 */
(PID.TID 0000.0001)    14 @  5.000000000000000E+00,             /* K =  2: 15 */
(PID.TID 0000.0001)                 5.005000000000000E+00,      /* K = 16 */
(PID.TID 0000.0001)                 5.010000000000000E+00,      /* K = 17 */
(PID.TID 0000.0001)                 5.015000000000000E+00,      /* K = 18 */
(PID.TID 0000.0001)                 5.029999999999999E+00,      /* K = 19 */
(PID.TID 0000.0001)                 5.055000000000000E+00,      /* K = 20 */
(PID.TID 0000.0001)                 5.095000000000001E+00,      /* K = 21 */
(PID.TID 0000.0001)                 5.160000000000000E+00,      /* K = 22 */
(PID.TID 0000.0001)                 5.255000000000000E+00,      /* K = 23 */
(PID.TID 0000.0001)                 5.400000000000000E+00,      /* K = 24 */
(PID.TID 0000.0001)                 5.605000000000000E+00,      /* K = 25 */
(PID.TID 0000.0001)                 5.880000000000000E+00,      /* K = 26 */
(PID.TID 0000.0001)                 6.245000000000000E+00,      /* K = 27 */
(PID.TID 0000.0001)                 6.710000000000000E+00,      /* K = 28 */
(PID.TID 0000.0001)                 7.295000000000000E+00,      /* K = 29 */
(PID.TID 0000.0001)                 8.020000000000000E+00,      /* K = 30 */
(PID.TID 0000.0001)                 8.890000000000001E+00,      /* K = 31 */
(PID.TID 0000.0001)                 9.910000000000000E+00,      /* K = 32 */
(PID.TID 0000.0001)                 1.109000000000000E+01,      /* K = 33 */
(PID.TID 0000.0001)                 1.242500000000000E+01,      /* K = 34 */
(PID.TID 0000.0001)                 1.391500000000000E+01,      /* K = 35 */
(PID.TID 0000.0001)                 1.555000000000000E+01,      /* K = 36 */
(PID.TID 0000.0001)                 1.732000000000000E+01,      /* K = 37 */
(PID.TID 0000.0001)                 1.921000000000000E+01,      /* K = 38 */
(PID.TID 0000.0001)                 2.119500000000000E+01,      /* K = 39 */
(PID.TID 0000.0001)                 2.325000000000000E+01,      /* K = 40 */
(PID.TID 0000.0001)                 2.536000000000000E+01,      /* K = 41 */
(PID.TID 0000.0001)                 2.750000000000000E+01,      /* K = 42 */
(PID.TID 0000.0001)                 2.964000000000000E+01,      /* K = 43 */
(PID.TID 0000.0001)                 3.175000000000000E+01,      /* K = 44 */
(PID.TID 0000.0001)                 3.380500000000000E+01,      /* K = 45 */
(PID.TID 0000.0001)                 3.579000000000000E+01,      /* K = 46 */
(PID.TID 0000.0001)                 3.768000000000000E+01,      /* K = 47 */
(PID.TID 0000.0001)                 3.945000000000000E+01,      /* K = 48 */
(PID.TID 0000.0001)                 4.108499999999999E+01,      /* K = 49 */
(PID.TID 0000.0001)                 4.257500000000000E+01,      /* K = 50 */
(PID.TID 0000.0001)                 4.391000000000000E+01,      /* K = 51 */
(PID.TID 0000.0001)                 4.509000000000000E+01,      /* K = 52 */
(PID.TID 0000.0001)                 4.611000000000000E+01,      /* K = 53 */
(PID.TID 0000.0001)                 4.698000000000000E+01,      /* K = 54 */
(PID.TID 0000.0001)                 4.770500000000000E+01,      /* K = 55 */
(PID.TID 0000.0001)                 4.829000000000000E+01,      /* K = 56 */
(PID.TID 0000.0001)                 4.875500000000000E+01,      /* K = 57 */
(PID.TID 0000.0001)                 4.912500000000000E+01,      /* K = 58 */
(PID.TID 0000.0001)                 4.941000000000000E+01,      /* K = 59 */
(PID.TID 0000.0001)                 4.962500000000000E+01,      /* K = 60 */
(PID.TID 0000.0001)                 4.981000000000000E+01,      /* K = 61 */
(PID.TID 0000.0001)                 5.000500000000000E+01,      /* K = 62 */
(PID.TID 0000.0001)                 5.026000000000000E+01,      /* K = 63 */
(PID.TID 0000.0001)                 5.066500000000000E+01,      /* K = 64 */
(PID.TID 0000.0001)                 5.130500000000000E+01,      /* K = 65 */
(PID.TID 0000.0001)                 5.228000000000000E+01,      /* K = 66 */
(PID.TID 0000.0001)                 5.370500000000000E+01,      /* K = 67 */
(PID.TID 0000.0001)                 5.566500000000000E+01,      /* K = 68 */
(PID.TID 0000.0001)                 5.823000000000000E+01,      /* K = 69 */
(PID.TID 0000.0001)                 6.141500000000000E+01,      /* K = 70 */
(PID.TID 0000.0001)                 6.521000000000001E+01,      /* K = 71 */
(PID.TID 0000.0001)                 6.954500000000000E+01,      /* K = 72 */
(PID.TID 0000.0001)                 7.433000000000000E+01,      /* K = 73 */
(PID.TID 0000.0001)                 7.947000000000000E+01,      /* K = 74 */
(PID.TID 0000.0001)                 8.486000000000000E+01,      /* K = 75 */
(PID.TID 0000.0001)                 9.041499999999999E+01,      /* K = 76 */
(PID.TID 0000.0001)                 9.606500000000000E+01,      /* K = 77 */
(PID.TID 0000.0001)                 1.017750000000000E+02,      /* K = 78 */
(PID.TID 0000.0001)                 1.075100000000000E+02,      /* K = 79 */
(PID.TID 0000.0001)                 1.132500000000000E+02,      /* K = 80 */
(PID.TID 0000.0001)                 1.189950000000000E+02,      /* K = 81 */
(PID.TID 0000.0001)                 1.247500000000000E+02,      /* K = 82 */
(PID.TID 0000.0001)                 1.305050000000000E+02,      /* K = 83 */
(PID.TID 0000.0001)                 1.362500000000000E+02,      /* K = 84 */
(PID.TID 0000.0001)                 1.419950000000000E+02,      /* K = 85 */
(PID.TID 0000.0001)                 1.477500000000000E+02,      /* K = 86 */
(PID.TID 0000.0001)                 1.535050000000000E+02,      /* K = 87 */
(PID.TID 0000.0001)                 1.592500000000000E+02,      /* K = 88 */
(PID.TID 0000.0001)                 1.649950000000000E+02,      /* K = 89 */
(PID.TID 0000.0001)                 1.707500000000000E+02,      /* K = 90 */
(PID.TID 0000.0001)                 1.765050000000000E+02,      /* K = 91 */
(PID.TID 0000.0001)                 1.822500000000000E+02,      /* K = 92 */
(PID.TID 0000.0001)                 1.879950000000000E+02,      /* K = 93 */
(PID.TID 0000.0001)                 1.937500000000000E+02,      /* K = 94 */
(PID.TID 0000.0001)                 1.995050000000000E+02,      /* K = 95 */
(PID.TID 0000.0001)                 2.052500000000000E+02,      /* K = 96 */
(PID.TID 0000.0001)                 2.109950000000000E+02,      /* K = 97 */
(PID.TID 0000.0001)                 2.167500000000000E+02,      /* K = 98 */
(PID.TID 0000.0001)                 2.225050000000000E+02,      /* K = 99 */
(PID.TID 0000.0001)                 2.282500000000000E+02,      /* K =100 */
(PID.TID 0000.0001)                 1.155600000000000E+02       /* K =101 */
(PID.TID 0000.0001)     ;
(PID.TID 0000.0001) drF =   /* W spacing ( units of r ) */
(PID.TID 0000.0001)    15 @  5.000000000000000E+00,             /* K =  1: 15 */
(PID.TID 0000.0001)     2 @  5.010000000000000E+00,             /* K = 16: 17 */
(PID.TID 0000.0001)                 5.020000000000000E+00,      /* K = 18 */
(PID.TID 0000.0001)                 5.040000000000000E+00,      /* K = 19 */
(PID.TID 0000.0001)                 5.070000000000000E+00,      /* K = 20 */
(PID.TID 0000.0001)                 5.120000000000000E+00,      /* K = 21 */
(PID.TID 0000.0001)                 5.200000000000000E+00,      /* K = 22 */
(PID.TID 0000.0001)                 5.310000000000000E+00,      /* K = 23 */
(PID.TID 0000.0001)                 5.490000000000000E+00,      /* K = 24 */
(PID.TID 0000.0001)                 5.720000000000000E+00,      /* K = 25 */
(PID.TID 0000.0001)                 6.040000000000000E+00,      /* K = 26 */
(PID.TID 0000.0001)                 6.450000000000000E+00,      /* K = 27 */
(PID.TID 0000.0001)                 6.970000000000000E+00,      /* K = 28 */
(PID.TID 0000.0001)                 7.620000000000000E+00,      /* K = 29 */
(PID.TID 0000.0001)                 8.420000000000000E+00,      /* K = 30 */
(PID.TID 0000.0001)                 9.359999999999999E+00,      /* K = 31 */
(PID.TID 0000.0001)                 1.046000000000000E+01,      /* K = 32 */
(PID.TID 0000.0001)                 1.172000000000000E+01,      /* K = 33 */
(PID.TID 0000.0001)                 1.313000000000000E+01,      /* K = 34 */
(PID.TID 0000.0001)                 1.470000000000000E+01,      /* K = 35 */
(PID.TID 0000.0001)                 1.640000000000000E+01,      /* K = 36 */
(PID.TID 0000.0001)                 1.824000000000000E+01,      /* K = 37 */
(PID.TID 0000.0001)                 2.018000000000000E+01,      /* K = 38 */
(PID.TID 0000.0001)                 2.221000000000000E+01,      /* K = 39 */
(PID.TID 0000.0001)                 2.429000000000000E+01,      /* K = 40 */
(PID.TID 0000.0001)                 2.643000000000000E+01,      /* K = 41 */
(PID.TID 0000.0001)                 2.857000000000000E+01,      /* K = 42 */
(PID.TID 0000.0001)                 3.071000000000000E+01,      /* K = 43 */
(PID.TID 0000.0001)                 3.279000000000000E+01,      /* K = 44 */
(PID.TID 0000.0001)                 3.482000000000000E+01,      /* K = 45 */
(PID.TID 0000.0001)                 3.676000000000000E+01,      /* K = 46 */
(PID.TID 0000.0001)                 3.860000000000000E+01,      /* K = 47 */
(PID.TID 0000.0001)                 4.030000000000000E+01,      /* K = 48 */
(PID.TID 0000.0001)                 4.187000000000000E+01,      /* K = 49 */
(PID.TID 0000.0001)                 4.328000000000000E+01,      /* K = 50 */
(PID.TID 0000.0001)                 4.454000000000000E+01,      /* K = 51 */
(PID.TID 0000.0001)                 4.564000000000000E+01,      /* K = 52 */
(PID.TID 0000.0001)                 4.658000000000000E+01,      /* K = 53 */
(PID.TID 0000.0001)                 4.738000000000000E+01,      /* K = 54 */
(PID.TID 0000.0001)                 4.803000000000000E+01,      /* K = 55 */
(PID.TID 0000.0001)                 4.855000000000000E+01,      /* K = 56 */
(PID.TID 0000.0001)                 4.896000000000000E+01,      /* K = 57 */
(PID.TID 0000.0001)                 4.929000000000000E+01,      /* K = 58 */
(PID.TID 0000.0001)                 4.953000000000000E+01,      /* K = 59 */
(PID.TID 0000.0001)                 4.972000000000000E+01,      /* K = 60 */
(PID.TID 0000.0001)                 4.990000000000000E+01,      /* K = 61 */
(PID.TID 0000.0001)                 5.011000000000000E+01,      /* K = 62 */
(PID.TID 0000.0001)                 5.041000000000000E+01,      /* K = 63 */
(PID.TID 0000.0001)                 5.092000000000000E+01,      /* K = 64 */
(PID.TID 0000.0001)                 5.169000000000000E+01,      /* K = 65 */
(PID.TID 0000.0001)                 5.287000000000000E+01,      /* K = 66 */
(PID.TID 0000.0001)                 5.454000000000000E+01,      /* K = 67 */
(PID.TID 0000.0001)                 5.679000000000000E+01,      /* K = 68 */
(PID.TID 0000.0001)                 5.967000000000000E+01,      /* K = 69 */
(PID.TID 0000.0001)                 6.316000000000000E+01,      /* K = 70 */
(PID.TID 0000.0001)                 6.726000000000001E+01,      /* K = 71 */
(PID.TID 0000.0001)                 7.183000000000000E+01,      /* K = 72 */
(PID.TID 0000.0001)                 7.683000000000000E+01,      /* K = 73 */
(PID.TID 0000.0001)                 8.211000000000000E+01,      /* K = 74 */
(PID.TID 0000.0001)                 8.761000000000000E+01,      /* K = 75 */
(PID.TID 0000.0001)                 9.322000000000000E+01,      /* K = 76 */
(PID.TID 0000.0001)                 9.891000000000000E+01,      /* K = 77 */
(PID.TID 0000.0001)                 1.046400000000000E+02,      /* K = 78 */
(PID.TID 0000.0001)                 1.103800000000000E+02,      /* K = 79 */
(PID.TID 0000.0001)                 1.161200000000000E+02,      /* K = 80 */
(PID.TID 0000.0001)                 1.218700000000000E+02,      /* K = 81 */
(PID.TID 0000.0001)                 1.276300000000000E+02,      /* K = 82 */
(PID.TID 0000.0001)                 1.333800000000000E+02,      /* K = 83 */
(PID.TID 0000.0001)                 1.391200000000000E+02,      /* K = 84 */
(PID.TID 0000.0001)                 1.448700000000000E+02,      /* K = 85 */
(PID.TID 0000.0001)                 1.506300000000000E+02,      /* K = 86 */
(PID.TID 0000.0001)                 1.563800000000000E+02,      /* K = 87 */
(PID.TID 0000.0001)                 1.621200000000000E+02,      /* K = 88 */
(PID.TID 0000.0001)                 1.678700000000000E+02,      /* K = 89 */
(PID.TID 0000.0001)                 1.736300000000000E+02,      /* K = 90 */
(PID.TID 0000.0001)                 1.793800000000000E+02,      /* K = 91 */
(PID.TID 0000.0001)                 1.851200000000000E+02,      /* K = 92 */
(PID.TID 0000.0001)                 1.908700000000000E+02,      /* K = 93 */
(PID.TID 0000.0001)                 1.966300000000000E+02,      /* K = 94 */
(PID.TID 0000.0001)                 2.023800000000000E+02,      /* K = 95 */
(PID.TID 0000.0001)                 2.081200000000000E+02,      /* K = 96 */
(PID.TID 0000.0001)                 2.138700000000000E+02,      /* K = 97 */
(PID.TID 0000.0001)                 2.196300000000000E+02,      /* K = 98 */
(PID.TID 0000.0001)                 2.253800000000000E+02,      /* K = 99 */
(PID.TID 0000.0001)                 2.311200000000000E+02       /* K =100 */
(PID.TID 0000.0001)     ;
(PID.TID 0000.0001) delX = /* U spacing ( m - cartesian, degrees - spherical ) */
(PID.TID 0000.0001)  2160 @  4.166666666666700E-02              /* I =   1:2160 */
(PID.TID 0000.0001)     ;
(PID.TID 0000.0001) delY = /* V spacing ( m - cartesian, degrees - spherical ) */
(PID.TID 0000.0001)                 3.423118591308594E-02,      /* J =  1 */
(PID.TID 0000.0001)                 3.422164916992188E-02,      /* J =  2 */
(PID.TID 0000.0001)                 3.421211242675781E-02,      /* J =  3 */
(PID.TID 0000.0001)      . . .
(PID.TID 0000.0001)                 3.283882141113281E-02,      /* J =133 */
(PID.TID 0000.0001)                 3.282928466796875E-02,      /* J =134 */
(PID.TID 0000.0001)                 3.281784057617188E-02,      /* J =135 */
(PID.TID 0000.0001)                 3.280639648437500E-02,      /* J =136 */
(PID.TID 0000.0001)                 3.279495239257812E-02,      /* J =137 */
(PID.TID 0000.0001)                 3.278350830078125E-02,      /* J =138 */
(PID.TID 0000.0001)      . . .
(PID.TID 0000.0001)                 3.132247924804688E-02,      /* J =268 */
(PID.TID 0000.0001)                 3.130722045898438E-02,      /* J =269 */
(PID.TID 0000.0001)                 3.129959106445312E-02,      /* J =270 */
(PID.TID 0000.0001)                 3.128814697265625E-02,      /* J =271 */
(PID.TID 0000.0001)                 3.127288818359375E-02,      /* J =272 */
(PID.TID 0000.0001)                 3.126525878906250E-02,      /* J =273 */
(PID.TID 0000.0001)      . . .
(PID.TID 0000.0001)                 2.974700927734375E-02,      /* J =403 */
(PID.TID 0000.0001)                 2.973175048828125E-02,      /* J =404 */
(PID.TID 0000.0001)                 2.971649169921875E-02,      /* J =405 */
(PID.TID 0000.0001)                 2.970886230468750E-02,      /* J =406 */
(PID.TID 0000.0001)                 2.969741821289062E-02,      /* J =407 */
(PID.TID 0000.0001)                 2.968597412109375E-02,      /* J =408 */
(PID.TID 0000.0001)      . . .
(PID.TID 0000.0001)                 2.813720703125000E-02,      /* J =538 */
(PID.TID 0000.0001)                 2.812576293945312E-02,      /* J =539 */
(PID.TID 0000.0001)                 2.811431884765625E-02       /* J =540 */
(PID.TID 0000.0001)     ;
(PID.TID 0000.0001) xgOrigin = /* X-axis origin of West  edge (cartesian: m, lat-lon: deg) */
(PID.TID 0000.0001)                -8.300000000000000E+01
(PID.TID 0000.0001)     ;
(PID.TID 0000.0001) ygOrigin = /* Y-axis origin of South edge (cartesian: m, lat-lon: deg) */
(PID.TID 0000.0001)                 2.665005493164062E+01
(PID.TID 0000.0001)     ;
(PID.TID 0000.0001) rSphere =  /* Radius ( ignored - cartesian, m - spherical ) */
(PID.TID 0000.0001)                 6.370000000000000E+06
(PID.TID 0000.0001)     ;
(PID.TID 0000.0001) deepAtmosphere = /* Deep/Shallow Atmosphere flag (True/False) */
(PID.TID 0000.0001)                   F
(PID.TID 0000.0001)     ;
(PID.TID 0000.0001) xC =  /* xC(:,1,:,1) : P-point X coord ( deg. or m if cartesian) */
(PID.TID 0000.0001)                -8.297916666666666E+01,      /* I =  1 */
(PID.TID 0000.0001)                -8.293750000000000E+01,      /* I =  2 */
(PID.TID 0000.0001)                -8.289583333333331E+01,      /* I =  3 */
(PID.TID 0000.0001)      . . .
(PID.TID 0000.0001)                -8.214583333333323E+01,      /* I = 21 */
(PID.TID 0000.0001)                -8.210416666666657E+01,      /* I = 22 */
(PID.TID 0000.0001)                -8.206249999999989E+01,      /* I = 23 */
(PID.TID 0000.0001)                -8.202083333333323E+01,      /* I = 24 */
(PID.TID 0000.0001)                -8.197916666666654E+01,      /* I = 25 */
(PID.TID 0000.0001)                -8.193749999999989E+01,      /* I = 26 */
(PID.TID 0000.0001)      . . .
(PID.TID 0000.0001)                -8.122916666666646E+01,      /* I = 43 */
(PID.TID 0000.0001)                -8.118749999999980E+01,      /* I = 44 */
(PID.TID 0000.0001)                -8.114583333333312E+01,      /* I = 45 */
(PID.TID 0000.0001)                -8.110416666666646E+01,      /* I = 46 */
(PID.TID 0000.0001)                -8.106249999999977E+01,      /* I = 47 */
(PID.TID 0000.0001)                -8.102083333333312E+01,      /* I = 48 */
(PID.TID 0000.0001)      . . .
(PID.TID 0000.0001)                -8.031249999999969E+01,      /* I = 65 */
(PID.TID 0000.0001)                -8.027083333333303E+01,      /* I = 66 */
(PID.TID 0000.0001)                -8.022916666666634E+01,      /* I = 67 */
(PID.TID 0000.0001)                -8.018749999999969E+01,      /* I = 68 */
(PID.TID 0000.0001)                -8.014583333333300E+01,      /* I = 69 */
(PID.TID 0000.0001)                -8.010416666666634E+01,      /* I = 70 */
(PID.TID 0000.0001)      . . .
(PID.TID 0000.0001)                -7.935416666666626E+01,      /* I = 88 */
(PID.TID 0000.0001)                -7.931249999999957E+01,      /* I = 89 */
(PID.TID 0000.0001)                -7.927083333333292E+01       /* I = 90 */
(PID.TID 0000.0001)     ;
(PID.TID 0000.0001) yC =  /* yC(1,:,1,:) : P-point Y coord ( deg. or m if cartesian) */
(PID.TID 0000.0001)                 2.666717052459717E+01,      /* J =  1 */
(PID.TID 0000.0001)                 2.670139694213867E+01,      /* J =  2 */
(PID.TID 0000.0001)                 2.673561382293701E+01,      /* J =  3 */
(PID.TID 0000.0001)      . . .
(PID.TID 0000.0001)                 2.734977054595947E+01,      /* J = 21 */
(PID.TID 0000.0001)                 2.738379383087158E+01,      /* J = 22 */
(PID.TID 0000.0001)                 2.741780662536621E+01,      /* J = 23 */
(PID.TID 0000.0001)                 2.745180892944336E+01,      /* J = 24 */
(PID.TID 0000.0001)                 2.748580074310303E+01,      /* J = 25 */
(PID.TID 0000.0001)                 2.751978206634521E+01,      /* J = 26 */
(PID.TID 0000.0001)      . . .
(PID.TID 0000.0001)                 2.809589099884033E+01,      /* J = 43 */
(PID.TID 0000.0001)                 2.812968635559082E+01,      /* J = 44 */
(PID.TID 0000.0001)                 2.816347122192383E+01,      /* J = 45 */
(PID.TID 0000.0001)                 2.819724559783936E+01,      /* J = 46 */
(PID.TID 0000.0001)                 2.823101043701172E+01,      /* J = 47 */
(PID.TID 0000.0001)                 2.826476478576660E+01,      /* J = 48 */
(PID.TID 0000.0001)      . . .
(PID.TID 0000.0001)                 2.883697605133057E+01,      /* J = 65 */
(PID.TID 0000.0001)                 2.887054157257080E+01,      /* J = 66 */
(PID.TID 0000.0001)                 2.890409564971924E+01,      /* J = 67 */
(PID.TID 0000.0001)                 2.893763923645020E+01,      /* J = 68 */
(PID.TID 0000.0001)                 2.897117233276367E+01,      /* J = 69 */
(PID.TID 0000.0001)                 2.900469493865967E+01,      /* J = 70 */
(PID.TID 0000.0001)      . . .
(PID.TID 0000.0001)                 2.960628890991211E+01,      /* J = 88 */
(PID.TID 0000.0001)                 2.963960933685303E+01,      /* J = 89 */
(PID.TID 0000.0001)                 2.967291927337646E+01       /* J = 90 */
(PID.TID 0000.0001)     ;
(PID.TID 0000.0001) rcoord = /* P-point R coordinate (  units of r ) */
(PID.TID 0000.0001)                -2.500000000000000E+00,      /* K =  1 */
(PID.TID 0000.0001)                -7.500000000000000E+00,      /* K =  2 */
(PID.TID 0000.0001)                -1.250000000000000E+01,      /* K =  3 */
(PID.TID 0000.0001)                -1.750000000000000E+01,      /* K =  4 */
(PID.TID 0000.0001)                -2.250000000000000E+01,      /* K =  5 */
(PID.TID 0000.0001)                -2.750000000000000E+01,      /* K =  6 */
(PID.TID 0000.0001)                -3.250000000000000E+01,      /* K =  7 */
(PID.TID 0000.0001)                -3.750000000000000E+01,      /* K =  8 */
(PID.TID 0000.0001)                -4.250000000000000E+01,      /* K =  9 */
(PID.TID 0000.0001)                -4.750000000000000E+01,      /* K = 10 */
(PID.TID 0000.0001)                -5.250000000000000E+01,      /* K = 11 */
(PID.TID 0000.0001)                -5.750000000000000E+01,      /* K = 12 */
(PID.TID 0000.0001)                -6.250000000000000E+01,      /* K = 13 */
(PID.TID 0000.0001)                -6.750000000000000E+01,      /* K = 14 */
(PID.TID 0000.0001)                -7.250000000000000E+01,      /* K = 15 */
(PID.TID 0000.0001)                -7.750500000000000E+01,      /* K = 16 */
(PID.TID 0000.0001)                -8.251500000000000E+01,      /* K = 17 */
(PID.TID 0000.0001)                -8.753000000000000E+01,      /* K = 18 */
(PID.TID 0000.0001)                -9.256000000000000E+01,      /* K = 19 */
(PID.TID 0000.0001)                -9.761500000000001E+01,      /* K = 20 */
(PID.TID 0000.0001)                -1.027100000000000E+02,      /* K = 21 */
(PID.TID 0000.0001)                -1.078700000000000E+02,      /* K = 22 */
(PID.TID 0000.0001)                -1.131250000000000E+02,      /* K = 23 */
(PID.TID 0000.0001)                -1.185250000000000E+02,      /* K = 24 */
(PID.TID 0000.0001)                -1.241300000000000E+02,      /* K = 25 */
(PID.TID 0000.0001)                -1.300100000000000E+02,      /* K = 26 */
(PID.TID 0000.0001)                -1.362550000000000E+02,      /* K = 27 */
(PID.TID 0000.0001)                -1.429650000000000E+02,      /* K = 28 */
(PID.TID 0000.0001)                -1.502600000000000E+02,      /* K = 29 */
(PID.TID 0000.0001)                -1.582800000000000E+02,      /* K = 30 */
(PID.TID 0000.0001)                -1.671700000000000E+02,      /* K = 31 */
(PID.TID 0000.0001)                -1.770800000000000E+02,      /* K = 32 */
(PID.TID 0000.0001)                -1.881700000000000E+02,      /* K = 33 */
(PID.TID 0000.0001)                -2.005950000000000E+02,      /* K = 34 */
(PID.TID 0000.0001)                -2.145100000000000E+02,      /* K = 35 */
(PID.TID 0000.0001)                -2.300600000000000E+02,      /* K = 36 */
(PID.TID 0000.0001)                -2.473800000000000E+02,      /* K = 37 */
(PID.TID 0000.0001)                -2.665900000000000E+02,      /* K = 38 */
(PID.TID 0000.0001)                -2.877850000000000E+02,      /* K = 39 */
(PID.TID 0000.0001)                -3.110350000000000E+02,      /* K = 40 */
(PID.TID 0000.0001)                -3.363950000000000E+02,      /* K = 41 */
(PID.TID 0000.0001)                -3.638950000000000E+02,      /* K = 42 */
(PID.TID 0000.0001)                -3.935350000000000E+02,      /* K = 43 */
(PID.TID 0000.0001)                -4.252850000000000E+02,      /* K = 44 */
(PID.TID 0000.0001)                -4.590900000000000E+02,      /* K = 45 */
(PID.TID 0000.0001)                -4.948800000000001E+02,      /* K = 46 */
(PID.TID 0000.0001)                -5.325600000000001E+02,      /* K = 47 */
(PID.TID 0000.0001)                -5.720100000000001E+02,      /* K = 48 */
(PID.TID 0000.0001)                -6.130950000000001E+02,      /* K = 49 */
(PID.TID 0000.0001)                -6.556700000000002E+02,      /* K = 50 */
(PID.TID 0000.0001)                -6.995800000000002E+02,      /* K = 51 */
(PID.TID 0000.0001)                -7.446700000000002E+02,      /* K = 52 */
(PID.TID 0000.0001)                -7.907800000000002E+02,      /* K = 53 */
(PID.TID 0000.0001)                -8.377600000000002E+02,      /* K = 54 */
(PID.TID 0000.0001)                -8.854650000000003E+02,      /* K = 55 */
(PID.TID 0000.0001)                -9.337550000000002E+02,      /* K = 56 */
(PID.TID 0000.0001)                -9.825100000000002E+02,      /* K = 57 */
(PID.TID 0000.0001)                -1.031635000000000E+03,      /* K = 58 */
(PID.TID 0000.0001)                -1.081045000000000E+03,      /* K = 59 */
(PID.TID 0000.0001)                -1.130670000000000E+03,      /* K = 60 */
(PID.TID 0000.0001)                -1.180480000000000E+03,      /* K = 61 */
(PID.TID 0000.0001)                -1.230485000000000E+03,      /* K = 62 */
(PID.TID 0000.0001)                -1.280745000000000E+03,      /* K = 63 */
(PID.TID 0000.0001)                -1.331410000000000E+03,      /* K = 64 */
(PID.TID 0000.0001)                -1.382715000000000E+03,      /* K = 65 */
(PID.TID 0000.0001)                -1.434995000000000E+03,      /* K = 66 */
(PID.TID 0000.0001)                -1.488700000000000E+03,      /* K = 67 */
(PID.TID 0000.0001)                -1.544365000000000E+03,      /* K = 68 */
(PID.TID 0000.0001)                -1.602595000000000E+03,      /* K = 69 */
(PID.TID 0000.0001)                -1.664010000000000E+03,      /* K = 70 */
(PID.TID 0000.0001)                -1.729220000000000E+03,      /* K = 71 */
(PID.TID 0000.0001)                -1.798765000000000E+03,      /* K = 72 */
(PID.TID 0000.0001)                -1.873095000000000E+03,      /* K = 73 */
(PID.TID 0000.0001)                -1.952565000000000E+03,      /* K = 74 */
(PID.TID 0000.0001)                -2.037425000000000E+03,      /* K = 75 */
(PID.TID 0000.0001)                -2.127840000000000E+03,      /* K = 76 */
(PID.TID 0000.0001)                -2.223905000000000E+03,      /* K = 77 */
(PID.TID 0000.0001)                -2.325680000000000E+03,      /* K = 78 */
(PID.TID 0000.0001)                -2.433190000000001E+03,      /* K = 79 */
(PID.TID 0000.0001)                -2.546440000000001E+03,      /* K = 80 */
(PID.TID 0000.0001)                -2.665435000000000E+03,      /* K = 81 */
(PID.TID 0000.0001)                -2.790185000000000E+03,      /* K = 82 */
(PID.TID 0000.0001)                -2.920690000000001E+03,      /* K = 83 */
(PID.TID 0000.0001)                -3.056940000000001E+03,      /* K = 84 */
(PID.TID 0000.0001)                -3.198935000000000E+03,      /* K = 85 */
(PID.TID 0000.0001)                -3.346685000000000E+03,      /* K = 86 */
(PID.TID 0000.0001)                -3.500190000000001E+03,      /* K = 87 */
(PID.TID 0000.0001)                -3.659440000000001E+03,      /* K = 88 */
(PID.TID 0000.0001)                -3.824435000000000E+03,      /* K = 89 */
(PID.TID 0000.0001)                -3.995185000000000E+03,      /* K = 90 */
(PID.TID 0000.0001)                -4.171690000000001E+03,      /* K = 91 */
(PID.TID 0000.0001)                -4.353940000000001E+03,      /* K = 92 */
(PID.TID 0000.0001)                -4.541935000000000E+03,      /* K = 93 */
(PID.TID 0000.0001)                -4.735685000000000E+03,      /* K = 94 */
(PID.TID 0000.0001)                -4.935190000000001E+03,      /* K = 95 */
(PID.TID 0000.0001)                -5.140440000000001E+03,      /* K = 96 */
(PID.TID 0000.0001)                -5.351435000000000E+03,      /* K = 97 */
(PID.TID 0000.0001)                -5.568185000000000E+03,      /* K = 98 */
(PID.TID 0000.0001)                -5.790690000000001E+03,      /* K = 99 */
(PID.TID 0000.0001)                -6.018940000000001E+03       /* K =100 */
(PID.TID 0000.0001)     ;
(PID.TID 0000.0001) rF =   /* W-Interf. R coordinate (  units of r ) */
(PID.TID 0000.0001)                 0.000000000000000E+00,      /* K =  1 */
(PID.TID 0000.0001)                -5.000000000000000E+00,      /* K =  2 */
(PID.TID 0000.0001)                -1.000000000000000E+01,      /* K =  3 */
(PID.TID 0000.0001)                -1.500000000000000E+01,      /* K =  4 */
(PID.TID 0000.0001)                -2.000000000000000E+01,      /* K =  5 */
(PID.TID 0000.0001)                -2.500000000000000E+01,      /* K =  6 */
(PID.TID 0000.0001)                -3.000000000000000E+01,      /* K =  7 */
(PID.TID 0000.0001)                -3.500000000000000E+01,      /* K =  8 */
(PID.TID 0000.0001)                -4.000000000000000E+01,      /* K =  9 */
(PID.TID 0000.0001)                -4.500000000000000E+01,      /* K = 10 */
(PID.TID 0000.0001)                -5.000000000000000E+01,      /* K = 11 */
(PID.TID 0000.0001)                -5.500000000000000E+01,      /* K = 12 */
(PID.TID 0000.0001)                -6.000000000000000E+01,      /* K = 13 */
(PID.TID 0000.0001)                -6.500000000000000E+01,      /* K = 14 */
(PID.TID 0000.0001)                -7.000000000000000E+01,      /* K = 15 */
(PID.TID 0000.0001)                -7.500000000000000E+01,      /* K = 16 */
(PID.TID 0000.0001)                -8.001000000000001E+01,      /* K = 17 */
(PID.TID 0000.0001)                -8.502000000000001E+01,      /* K = 18 */
(PID.TID 0000.0001)                -9.004000000000001E+01,      /* K = 19 */
(PID.TID 0000.0001)                -9.508000000000001E+01,      /* K = 20 */
(PID.TID 0000.0001)                -1.001500000000000E+02,      /* K = 21 */
(PID.TID 0000.0001)                -1.052700000000000E+02,      /* K = 22 */
(PID.TID 0000.0001)                -1.104700000000000E+02,      /* K = 23 */
(PID.TID 0000.0001)                -1.157800000000000E+02,      /* K = 24 */
(PID.TID 0000.0001)                -1.212700000000000E+02,      /* K = 25 */
(PID.TID 0000.0001)                -1.269900000000000E+02,      /* K = 26 */
(PID.TID 0000.0001)                -1.330300000000000E+02,      /* K = 27 */
(PID.TID 0000.0001)                -1.394800000000000E+02,      /* K = 28 */
(PID.TID 0000.0001)                -1.464500000000000E+02,      /* K = 29 */
(PID.TID 0000.0001)                -1.540700000000000E+02,      /* K = 30 */
(PID.TID 0000.0001)                -1.624900000000000E+02,      /* K = 31 */
(PID.TID 0000.0001)                -1.718500000000000E+02,      /* K = 32 */
(PID.TID 0000.0001)                -1.823100000000000E+02,      /* K = 33 */
(PID.TID 0000.0001)                -1.940300000000000E+02,      /* K = 34 */
(PID.TID 0000.0001)                -2.071600000000000E+02,      /* K = 35 */
(PID.TID 0000.0001)                -2.218600000000000E+02,      /* K = 36 */
(PID.TID 0000.0001)                -2.382600000000000E+02,      /* K = 37 */
(PID.TID 0000.0001)                -2.564999999999999E+02,      /* K = 38 */
(PID.TID 0000.0001)                -2.766799999999999E+02,      /* K = 39 */
(PID.TID 0000.0001)                -2.988899999999999E+02,      /* K = 40 */
(PID.TID 0000.0001)                -3.231799999999999E+02,      /* K = 41 */
(PID.TID 0000.0001)                -3.496100000000000E+02,      /* K = 42 */
(PID.TID 0000.0001)                -3.781799999999999E+02,      /* K = 43 */
(PID.TID 0000.0001)                -4.088899999999999E+02,      /* K = 44 */
(PID.TID 0000.0001)                -4.416799999999999E+02,      /* K = 45 */
(PID.TID 0000.0001)                -4.764999999999999E+02,      /* K = 46 */
(PID.TID 0000.0001)                -5.132600000000000E+02,      /* K = 47 */
(PID.TID 0000.0001)                -5.518600000000000E+02,      /* K = 48 */
(PID.TID 0000.0001)                -5.921600000000000E+02,      /* K = 49 */
(PID.TID 0000.0001)                -6.340300000000000E+02,      /* K = 50 */
(PID.TID 0000.0001)                -6.773099999999999E+02,      /* K = 51 */
(PID.TID 0000.0001)                -7.218499999999999E+02,      /* K = 52 */
(PID.TID 0000.0001)                -7.674899999999999E+02,      /* K = 53 */
(PID.TID 0000.0001)                -8.140699999999999E+02,      /* K = 54 */
(PID.TID 0000.0001)                -8.614499999999999E+02,      /* K = 55 */
(PID.TID 0000.0001)                -9.094799999999999E+02,      /* K = 56 */
(PID.TID 0000.0001)                -9.580299999999999E+02,      /* K = 57 */
(PID.TID 0000.0001)                -1.006990000000000E+03,      /* K = 58 */
(PID.TID 0000.0001)                -1.056280000000000E+03,      /* K = 59 */
(PID.TID 0000.0001)                -1.105810000000000E+03,      /* K = 60 */
(PID.TID 0000.0001)                -1.155530000000000E+03,      /* K = 61 */
(PID.TID 0000.0001)                -1.205430000000000E+03,      /* K = 62 */
(PID.TID 0000.0001)                -1.255540000000000E+03,      /* K = 63 */
(PID.TID 0000.0001)                -1.305950000000000E+03,      /* K = 64 */
(PID.TID 0000.0001)                -1.356870000000000E+03,      /* K = 65 */
(PID.TID 0000.0001)                -1.408560000000000E+03,      /* K = 66 */
(PID.TID 0000.0001)                -1.461430000000000E+03,      /* K = 67 */
(PID.TID 0000.0001)                -1.515970000000000E+03,      /* K = 68 */
(PID.TID 0000.0001)                -1.572760000000000E+03,      /* K = 69 */
(PID.TID 0000.0001)                -1.632430000000000E+03,      /* K = 70 */
(PID.TID 0000.0001)                -1.695590000000000E+03,      /* K = 71 */
(PID.TID 0000.0001)                -1.762850000000000E+03,      /* K = 72 */
(PID.TID 0000.0001)                -1.834680000000000E+03,      /* K = 73 */
(PID.TID 0000.0001)                -1.911510000000000E+03,      /* K = 74 */
(PID.TID 0000.0001)                -1.993620000000000E+03,      /* K = 75 */
(PID.TID 0000.0001)                -2.081230000000000E+03,      /* K = 76 */
(PID.TID 0000.0001)                -2.174450000000000E+03,      /* K = 77 */
(PID.TID 0000.0001)                -2.273360000000000E+03,      /* K = 78 */
(PID.TID 0000.0001)                -2.378000000000000E+03,      /* K = 79 */
(PID.TID 0000.0001)                -2.488380000000000E+03,      /* K = 80 */
(PID.TID 0000.0001)                -2.604500000000000E+03,      /* K = 81 */
(PID.TID 0000.0001)                -2.726369999999999E+03,      /* K = 82 */
(PID.TID 0000.0001)                -2.854000000000000E+03,      /* K = 83 */
(PID.TID 0000.0001)                -2.987380000000000E+03,      /* K = 84 */
(PID.TID 0000.0001)                -3.126500000000000E+03,      /* K = 85 */
(PID.TID 0000.0001)                -3.271369999999999E+03,      /* K = 86 */
(PID.TID 0000.0001)                -3.422000000000000E+03,      /* K = 87 */
(PID.TID 0000.0001)                -3.578380000000000E+03,      /* K = 88 */
(PID.TID 0000.0001)                -3.740500000000000E+03,      /* K = 89 */
(PID.TID 0000.0001)                -3.908369999999999E+03,      /* K = 90 */
(PID.TID 0000.0001)                -4.082000000000000E+03,      /* K = 91 */
(PID.TID 0000.0001)                -4.261379999999999E+03,      /* K = 92 */
(PID.TID 0000.0001)                -4.446499999999999E+03,      /* K = 93 */
(PID.TID 0000.0001)                -4.637369999999999E+03,      /* K = 94 */
(PID.TID 0000.0001)                -4.833999999999999E+03,      /* K = 95 */
(PID.TID 0000.0001)                -5.036379999999999E+03,      /* K = 96 */
(PID.TID 0000.0001)                -5.244499999999999E+03,      /* K = 97 */
(PID.TID 0000.0001)                -5.458369999999999E+03,      /* K = 98 */
(PID.TID 0000.0001)                -5.677999999999999E+03,      /* K = 99 */
(PID.TID 0000.0001)                -5.903379999999999E+03,      /* K =100 */
(PID.TID 0000.0001)                -6.134499999999999E+03       /* K =101 */
(PID.TID 0000.0001)     ;
(PID.TID 0000.0001) deepFacC = /* deep-model grid factor @ cell-Center (-) */
(PID.TID 0000.0001)   100 @  1.000000000000000E+00              /* K =  1:100 */
(PID.TID 0000.0001)     ;
(PID.TID 0000.0001) deepFacF = /* deep-model grid factor @ W-Interface (-) */
(PID.TID 0000.0001)   101 @  1.000000000000000E+00              /* K =  1:101 */
(PID.TID 0000.0001)     ;
(PID.TID 0000.0001) rVel2wUnit = /* convert units: rVel -> wSpeed (=1 if z-coord)*/
(PID.TID 0000.0001)   101 @  1.000000000000000E+00              /* K =  1:101 */
(PID.TID 0000.0001)     ;
(PID.TID 0000.0001) wUnit2rVel = /* convert units: wSpeed -> rVel (=1 if z-coord)*/
(PID.TID 0000.0001)   101 @  1.000000000000000E+00              /* K =  1:101 */
(PID.TID 0000.0001)     ;
(PID.TID 0000.0001) dBdrRef = /* Vertical grad. of reference buoyancy [(m/s/r)^2] */
(PID.TID 0000.0001)     5 @  0.000000000000000E+00,             /* K =  1:  5 */
(PID.TID 0000.0001)                 9.694282843778342E-06,      /* K =  6 */
(PID.TID 0000.0001)                 2.426513223807763E-05,      /* K =  7 */
(PID.TID 0000.0001)                 1.452975530153167E-05,      /* K =  8 */
(PID.TID 0000.0001)                 9.681498625854328E-06,      /* K =  9 */
(PID.TID 0000.0001)                 4.842099844624020E-05,      /* K = 10 */
(PID.TID 0000.0001)                 6.280856330023614E-05,      /* K = 11 */
(PID.TID 0000.0001)                 8.185617076656702E-05,      /* K = 12 */
(PID.TID 0000.0001)                 1.295252644691406E-04,      /* K = 13 */
(PID.TID 0000.0001)                 1.095351351384002E-04,      /* K = 14 */
(PID.TID 0000.0001)                 1.329169312007239E-04,      /* K = 15 */
(PID.TID 0000.0001)                 1.367041979360881E-04,      /* K = 16 */
(PID.TID 0000.0001)                 1.211727126593573E-04,      /* K = 17 */
(PID.TID 0000.0001)                 1.302265701121417E-04,      /* K = 18 */
(PID.TID 0000.0001)                 1.190854314588815E-04,      /* K = 19 */
(PID.TID 0000.0001)                 1.132023267377615E-04,      /* K = 20 */
(PID.TID 0000.0001)                 1.071632265654582E-04,      /* K = 21 */
(PID.TID 0000.0001)                 1.051393672457803E-04,      /* K = 22 */
(PID.TID 0000.0001)                 1.025752720636568E-04,      /* K = 23 */
(PID.TID 0000.0001)                 9.917395824143918E-05,      /* K = 24 */
(PID.TID 0000.0001)                 9.104030067387556E-05,      /* K = 25 */
(PID.TID 0000.0001)                 8.624441260795840E-05,      /* K = 26 */
(PID.TID 0000.0001)                 8.413036901537412E-05,      /* K = 27 */
(PID.TID 0000.0001)                 6.366728012651445E-05,      /* K = 28 */
(PID.TID 0000.0001)                 5.812092618380799E-05,      /* K = 29 */
(PID.TID 0000.0001)                 5.507951137016039E-05,      /* K = 30 */
(PID.TID 0000.0001)                 4.695510592930360E-05,      /* K = 31 */
(PID.TID 0000.0001)                 4.596409715692217E-05,      /* K = 32 */
(PID.TID 0000.0001)                 4.072795425761271E-05,      /* K = 33 */
(PID.TID 0000.0001)                 3.175298295526856E-05,      /* K = 34 */
(PID.TID 0000.0001)                 3.093452381022950E-05,      /* K = 35 */
(PID.TID 0000.0001)                 2.864003459600112E-05,      /* K = 36 */
(PID.TID 0000.0001)                 2.767315329576147E-05,      /* K = 37 */
(PID.TID 0000.0001)                 2.463000191580109E-05,      /* K = 38 */
(PID.TID 0000.0001)                 2.475053767167416E-05,      /* K = 39 */
(PID.TID 0000.0001)                 1.906506350221241E-05,      /* K = 40 */
(PID.TID 0000.0001)                 1.865582618722828E-05,      /* K = 41 */
(PID.TID 0000.0001)                 1.823366094760355E-05,      /* K = 42 */
(PID.TID 0000.0001)                 1.471037885515795E-05,      /* K = 43 */
(PID.TID 0000.0001)                 1.630603945735049E-05,      /* K = 44 */
(PID.TID 0000.0001)                 1.384745352787863E-05,      /* K = 45 */
(PID.TID 0000.0001)                 1.226594411185851E-05,      /* K = 46 */
(PID.TID 0000.0001)                 1.225310460290910E-05,      /* K = 47 */
(PID.TID 0000.0001)                 1.223011113144029E-05,      /* K = 48 */
(PID.TID 0000.0001)                 1.061638239990844E-05,      /* K = 49 */
(PID.TID 0000.0001)                 1.070650633014499E-05,      /* K = 50 */
(PID.TID 0000.0001)                 9.357472423340062E-06,      /* K = 51 */
(PID.TID 0000.0001)                 9.812756875994976E-06,      /* K = 52 */
(PID.TID 0000.0001)                 9.364680965538371E-06,      /* K = 53 */
(PID.TID 0000.0001)                 6.430982300518885E-06,      /* K = 54 */
(PID.TID 0000.0001)                 8.970058816087760E-06,      /* K = 55 */
(PID.TID 0000.0001)                 8.398462027768182E-06,      /* K = 56 */
(PID.TID 0000.0001)                 7.294531901104187E-06,      /* K = 57 */
(PID.TID 0000.0001)                 8.642565592484861E-06,      /* K = 58 */
(PID.TID 0000.0001)                 6.405731826441176E-06,      /* K = 59 */
(PID.TID 0000.0001)                 8.743452988220992E-06,      /* K = 60 */
(PID.TID 0000.0001)                 6.590306221026928E-06,      /* K = 61 */
(PID.TID 0000.0001)                 7.462277694900194E-06,      /* K = 62 */
(PID.TID 0000.0001)                 5.625478499738029E-06,      /* K = 63 */
(PID.TID 0000.0001)                 6.494457456351866E-06,      /* K = 64 */
(PID.TID 0000.0001)                 5.872364624284492E-06,      /* K = 65 */
(PID.TID 0000.0001)                 5.495436518643386E-06,      /* K = 66 */
(PID.TID 0000.0001)                 5.094601592541214E-06,      /* K = 67 */
(PID.TID 0000.0001)                 4.437172619322077E-06,      /* K = 68 */
(PID.TID 0000.0001)                 4.016940542409763E-06,      /* K = 69 */
(PID.TID 0000.0001)                 4.028908121728164E-06,      /* K = 70 */
(PID.TID 0000.0001)                 2.246388502686123E-06,      /* K = 71 */
(PID.TID 0000.0001)                 2.998142894531076E-06,      /* K = 72 */
(PID.TID 0000.0001)                 2.815413573924730E-06,      /* K = 73 */
(PID.TID 0000.0001)                 2.814329879263964E-06,      /* K = 74 */
(PID.TID 0000.0001)                 2.327158902006369E-06,      /* K = 75 */
(PID.TID 0000.0001)                 1.523559191918705E-06,      /* K = 76 */
(PID.TID 0000.0001)                 2.223754279938488E-06,      /* K = 77 */
(PID.TID 0000.0001)                 1.243572598777220E-06,      /* K = 78 */
(PID.TID 0000.0001)                 1.884009398486976E-06,      /* K = 79 */
(PID.TID 0000.0001)                 1.146309977456730E-06,      /* K = 80 */
(PID.TID 0000.0001)                 9.836409573498765E-07,      /* K = 81 */
(PID.TID 0000.0001)                 1.666564082034753E-06,      /* K = 82 */
(PID.TID 0000.0001)                 8.096789666921265E-07,      /* K = 83 */
(PID.TID 0000.0001)                 9.015806361848934E-07,      /* K = 84 */
(PID.TID 0000.0001)                 9.899996711216439E-07,      /* K = 85 */
(PID.TID 0000.0001)                 1.360959195968683E-06,      /* K = 86 */
(PID.TID 0000.0001)                 3.633635105266278E-07,      /* K = 87 */
(PID.TID 0000.0001)                 7.257552276248978E-07,      /* K = 88 */
(PID.TID 0000.0001)                 8.165089567519712E-07,      /* K = 89 */
(PID.TID 0000.0001)                 7.043987264958734E-07,      /* K = 90 */
(PID.TID 0000.0001)                 6.956983617110328E-07,      /* K = 91 */
(PID.TID 0000.0001)                 6.880703959048398E-07,      /* K = 92 */
(PID.TID 0000.0001)                 6.813676413074075E-07,      /* K = 93 */
(PID.TID 0000.0001)                 6.754628223828996E-07,      /* K = 94 */
(PID.TID 0000.0001)                 3.049729588883796E-07,      /* K = 95 */
(PID.TID 0000.0001)                 6.657955553385863E-07,      /* K = 96 */
(PID.TID 0000.0001)                 5.675084375793845E-07,      /* K = 97 */
(PID.TID 0000.0001)                 3.767262833194376E-07,      /* K = 98 */
(PID.TID 0000.0001)                 2.816808424830599E-07,      /* K = 99 */
(PID.TID 0000.0001)                 1.873891169846885E-07       /* K =100 */
(PID.TID 0000.0001)     ;
(PID.TID 0000.0001) rotateGrid = /* use rotated grid ( True/False ) */
(PID.TID 0000.0001)                   F
(PID.TID 0000.0001)     ;
(PID.TID 0000.0001) phiEuler = /* Euler angle, rotation about original z-coordinate [rad] */
(PID.TID 0000.0001)                 0.000000000000000E+00
(PID.TID 0000.0001)     ;
(PID.TID 0000.0001) thetaEuler = /* Euler angle, rotation about new x-coordinate [rad] */
(PID.TID 0000.0001)                 0.000000000000000E+00
(PID.TID 0000.0001)     ;
(PID.TID 0000.0001) psiEuler = /* Euler angle, rotation about new z-coordinate [rad] */
(PID.TID 0000.0001)                 0.000000000000000E+00
(PID.TID 0000.0001)     ;
(PID.TID 0000.0001) dxF =  /* dxF(:,1,:,1) ( units: m ) */
(PID.TID 0000.0001)    90 @  4.139640844360528E+03              /* I =  1: 90 */
(PID.TID 0000.0001)     ;
(PID.TID 0000.0001) dxF =  /* dxF(1,:,1,:) ( units: m ) */
(PID.TID 0000.0001)                 4.139640844360528E+03,      /* J =  1 */
(PID.TID 0000.0001)                 4.138398156068276E+03,      /* J =  2 */
(PID.TID 0000.0001)                 4.137154337892096E+03,      /* J =  3 */
(PID.TID 0000.0001)      . . .
(PID.TID 0000.0001)                 4.114578631903650E+03,      /* J = 21 */
(PID.TID 0000.0001)                 4.113314130015837E+03,      /* J = 22 */
(PID.TID 0000.0001)                 4.112048568245555E+03,      /* J = 23 */
(PID.TID 0000.0001)                 4.110781948379812E+03,      /* J = 24 */
(PID.TID 0000.0001)                 4.109514272204890E+03,      /* J = 25 */
(PID.TID 0000.0001)                 4.108245541506343E+03,      /* J = 26 */
(PID.TID 0000.0001)      . . .
(PID.TID 0000.0001)                 4.086516305844601E+03,      /* J = 43 */
(PID.TID 0000.0001)                 4.085228787830029E+03,      /* J = 44 */
(PID.TID 0000.0001)                 4.083940248837513E+03,      /* J = 45 */
(PID.TID 0000.0001)                 4.082650690638008E+03,      /* J = 46 */
(PID.TID 0000.0001)                 4.081360078528878E+03,      /* J = 47 */
(PID.TID 0000.0001)                 4.080068450672382E+03,      /* J = 48 */
(PID.TID 0000.0001)      . . .
(PID.TID 0000.0001)                 4.057957376278871E+03,      /* J = 65 */
(PID.TID 0000.0001)                 4.056647767010304E+03,      /* J = 66 */
(PID.TID 0000.0001)                 4.055337212739030E+03,      /* J = 67 */
(PID.TID 0000.0001)                 4.054025678029965E+03,      /* J = 68 */
(PID.TID 0000.0001)                 4.052713164636506E+03,      /* J = 69 */
(PID.TID 0000.0001)                 4.051399674311273E+03,      /* J = 70 */
(PID.TID 0000.0001)      . . .
(PID.TID 0000.0001)                 4.027592548301442E+03,      /* J = 88 */
(PID.TID 0000.0001)                 4.026260943407077E+03,      /* J = 89 */
(PID.TID 0000.0001)                 4.024928396702262E+03       /* J = 90 */
(PID.TID 0000.0001)     ;
(PID.TID 0000.0001) dyF =  /* dyF(:,1,:,1) ( units: m ) */
(PID.TID 0000.0001)    90 @  3.805736759660797E+03              /* I =  1: 90 */
(PID.TID 0000.0001)     ;
(PID.TID 0000.0001) dyF =  /* dyF(1,:,1,:) ( units: m ) */
(PID.TID 0000.0001)                 3.805736759660797E+03,      /* J =  1 */
(PID.TID 0000.0001)                 3.804676488651810E+03,      /* J =  2 */
(PID.TID 0000.0001)                 3.803616217642822E+03,      /* J =  3 */
(PID.TID 0000.0001)      . . .
(PID.TID 0000.0001)                 3.783259014270256E+03,      /* J = 21 */
(PID.TID 0000.0001)                 3.781986689059471E+03,      /* J = 22 */
(PID.TID 0000.0001)                 3.780926418050483E+03,      /* J = 23 */
(PID.TID 0000.0001)                 3.779654092839698E+03,      /* J = 24 */
(PID.TID 0000.0001)                 3.778593821830710E+03,      /* J = 25 */
(PID.TID 0000.0001)                 3.777321496619924E+03,      /* J = 26 */
(PID.TID 0000.0001)      . . .
(PID.TID 0000.0001)                 3.757812510054549E+03,      /* J = 43 */
(PID.TID 0000.0001)                 3.756752239045562E+03,      /* J = 44 */
(PID.TID 0000.0001)                 3.755479913834776E+03,      /* J = 45 */
(PID.TID 0000.0001)                 3.754419642825788E+03,      /* J = 46 */
(PID.TID 0000.0001)                 3.753359371816800E+03,      /* J = 47 */
(PID.TID 0000.0001)                 3.752087046606015E+03,      /* J = 48 */
(PID.TID 0000.0001)      . . .
(PID.TID 0000.0001)                 3.732366005838842E+03,      /* J = 65 */
(PID.TID 0000.0001)                 3.731093680628057E+03,      /* J = 66 */
(PID.TID 0000.0001)                 3.729821355417271E+03,      /* J = 67 */
(PID.TID 0000.0001)                 3.728761084408283E+03,      /* J = 68 */
(PID.TID 0000.0001)                 3.727488759197498E+03,      /* J = 69 */
(PID.TID 0000.0001)                 3.726428488188511E+03,      /* J = 70 */
(PID.TID 0000.0001)      . . .
(PID.TID 0000.0001)                 3.705011013806957E+03,      /* J = 88 */
(PID.TID 0000.0001)                 3.703950742797969E+03,      /* J = 89 */
(PID.TID 0000.0001)                 3.702678417587184E+03       /* J = 90 */
(PID.TID 0000.0001)     ;
(PID.TID 0000.0001) dxG =  /* dxG(:,1,:,1) ( units: m ) */
(PID.TID 0000.0001)    90 @  4.140261721044909E+03              /* I =  1: 90 */
(PID.TID 0000.0001)     ;
(PID.TID 0000.0001) dxG =  /* dxG(1,:,1,:) ( units: m ) */
(PID.TID 0000.0001)                 4.140261721044909E+03,      /* J =  1 */
(PID.TID 0000.0001)                 4.139019598272403E+03,      /* J =  2 */
(PID.TID 0000.0001)                 4.137776344777035E+03,      /* J =  3 */
(PID.TID 0000.0001)      . . .
(PID.TID 0000.0001)                 4.115210445004191E+03,      /* J = 21 */
(PID.TID 0000.0001)                 4.113946455960185E+03,      /* J = 22 */
(PID.TID 0000.0001)                 4.112681441584010E+03,      /* J = 23 */
(PID.TID 0000.0001)                 4.111415332734301E+03,      /* J = 24 */
(PID.TID 0000.0001)                 4.110148202207719E+03,      /* J = 25 */
(PID.TID 0000.0001)                 4.108879980698939E+03,      /* J = 26 */
(PID.TID 0000.0001)      . . .
(PID.TID 0000.0001)                 4.087159622456270E+03,      /* J = 43 */
(PID.TID 0000.0001)                 4.085872633696104E+03,      /* J = 44 */
(PID.TID 0000.0001)                 4.084584586739682E+03,      /* J = 45 */
(PID.TID 0000.0001)                 4.083295556063611E+03,      /* J = 46 */
(PID.TID 0000.0001)                 4.082005470653015E+03,      /* J = 47 */
(PID.TID 0000.0001)                 4.080714332157602E+03,      /* J = 48 */
(PID.TID 0000.0001)      . . .
(PID.TID 0000.0001)                 4.058611770197446E+03,      /* J = 65 */
(PID.TID 0000.0001)                 4.057302634073451E+03,      /* J = 66 */
(PID.TID 0000.0001)                 4.055992552010050E+03,      /* J = 67 */
(PID.TID 0000.0001)                 4.054681525880490E+03,      /* J = 68 */
(PID.TID 0000.0001)                 4.053369482901857E+03,      /* J = 69 */
(PID.TID 0000.0001)                 4.052056499442881E+03,      /* J = 70 */
(PID.TID 0000.0001)      . . .
(PID.TID 0000.0001)                 4.028257935157928E+03,      /* J = 88 */
(PID.TID 0000.0001)                 4.026926820812773E+03,      /* J = 89 */
(PID.TID 0000.0001)                 4.025594725676684E+03       /* J = 90 */
(PID.TID 0000.0001)     ;
(PID.TID 0000.0001) dyG =  /* dyG(:,1,:,1) ( units: m ) */
(PID.TID 0000.0001)    90 @  3.805736759660797E+03              /* I =  1: 90 */
(PID.TID 0000.0001)     ;
(PID.TID 0000.0001) dyG =  /* dyG(1,:,1,:) ( units: m ) */
(PID.TID 0000.0001)                 3.805736759660797E+03,      /* J =  1 */
(PID.TID 0000.0001)                 3.804676488651810E+03,      /* J =  2 */
(PID.TID 0000.0001)                 3.803616217642822E+03,      /* J =  3 */
(PID.TID 0000.0001)      . . .
(PID.TID 0000.0001)                 3.783259014270256E+03,      /* J = 21 */
(PID.TID 0000.0001)                 3.781986689059471E+03,      /* J = 22 */
(PID.TID 0000.0001)                 3.780926418050483E+03,      /* J = 23 */
(PID.TID 0000.0001)                 3.779654092839698E+03,      /* J = 24 */
(PID.TID 0000.0001)                 3.778593821830710E+03,      /* J = 25 */
(PID.TID 0000.0001)                 3.777321496619924E+03,      /* J = 26 */
(PID.TID 0000.0001)      . . .
(PID.TID 0000.0001)                 3.757812510054549E+03,      /* J = 43 */
(PID.TID 0000.0001)                 3.756752239045562E+03,      /* J = 44 */
(PID.TID 0000.0001)                 3.755479913834776E+03,      /* J = 45 */
(PID.TID 0000.0001)                 3.754419642825788E+03,      /* J = 46 */
(PID.TID 0000.0001)                 3.753359371816800E+03,      /* J = 47 */
(PID.TID 0000.0001)                 3.752087046606015E+03,      /* J = 48 */
(PID.TID 0000.0001)      . . .
(PID.TID 0000.0001)                 3.732366005838842E+03,      /* J = 65 */
(PID.TID 0000.0001)                 3.731093680628057E+03,      /* J = 66 */
(PID.TID 0000.0001)                 3.729821355417271E+03,      /* J = 67 */
(PID.TID 0000.0001)                 3.728761084408283E+03,      /* J = 68 */
(PID.TID 0000.0001)                 3.727488759197498E+03,      /* J = 69 */
(PID.TID 0000.0001)                 3.726428488188511E+03,      /* J = 70 */
(PID.TID 0000.0001)      . . .
(PID.TID 0000.0001)                 3.705011013806957E+03,      /* J = 88 */
(PID.TID 0000.0001)                 3.703950742797969E+03,      /* J = 89 */
(PID.TID 0000.0001)                 3.702678417587184E+03       /* J = 90 */
(PID.TID 0000.0001)     ;
(PID.TID 0000.0001) dxC =  /* dxC(:,1,:,1) ( units: m ) */
(PID.TID 0000.0001)    90 @  4.139640844360528E+03              /* I =  1: 90 */
(PID.TID 0000.0001)     ;
(PID.TID 0000.0001) dxC =  /* dxC(1,:,1,:) ( units: m ) */
(PID.TID 0000.0001)                 4.139640844360528E+03,      /* J =  1 */
(PID.TID 0000.0001)                 4.138398156068276E+03,      /* J =  2 */
(PID.TID 0000.0001)                 4.137154337892096E+03,      /* J =  3 */
(PID.TID 0000.0001)      . . .
(PID.TID 0000.0001)                 4.114578631903650E+03,      /* J = 21 */
(PID.TID 0000.0001)                 4.113314130015837E+03,      /* J = 22 */
(PID.TID 0000.0001)                 4.112048568245555E+03,      /* J = 23 */
(PID.TID 0000.0001)                 4.110781948379812E+03,      /* J = 24 */
(PID.TID 0000.0001)                 4.109514272204890E+03,      /* J = 25 */
(PID.TID 0000.0001)                 4.108245541506343E+03,      /* J = 26 */
(PID.TID 0000.0001)      . . .
(PID.TID 0000.0001)                 4.086516305844601E+03,      /* J = 43 */
(PID.TID 0000.0001)                 4.085228787830029E+03,      /* J = 44 */
(PID.TID 0000.0001)                 4.083940248837513E+03,      /* J = 45 */
(PID.TID 0000.0001)                 4.082650690638008E+03,      /* J = 46 */
(PID.TID 0000.0001)                 4.081360078528878E+03,      /* J = 47 */
(PID.TID 0000.0001)                 4.080068450672382E+03,      /* J = 48 */
(PID.TID 0000.0001)      . . .
(PID.TID 0000.0001)                 4.057957376278871E+03,      /* J = 65 */
(PID.TID 0000.0001)                 4.056647767010304E+03,      /* J = 66 */
(PID.TID 0000.0001)                 4.055337212739030E+03,      /* J = 67 */
(PID.TID 0000.0001)                 4.054025678029965E+03,      /* J = 68 */
(PID.TID 0000.0001)                 4.052713164636506E+03,      /* J = 69 */
(PID.TID 0000.0001)                 4.051399674311273E+03,      /* J = 70 */
(PID.TID 0000.0001)      . . .
(PID.TID 0000.0001)                 4.027592548301442E+03,      /* J = 88 */
(PID.TID 0000.0001)                 4.026260943407077E+03,      /* J = 89 */
(PID.TID 0000.0001)                 4.024928396702262E+03       /* J = 90 */
(PID.TID 0000.0001)     ;
(PID.TID 0000.0001) dyC =  /* dyC(:,1,:,1) ( units: m ) */
(PID.TID 0000.0001)    90 @  3.465707847078411E+03              /* I =  1: 90 */
(PID.TID 0000.0001)     ;
(PID.TID 0000.0001) dyC =  /* dyC(1,:,1,:) ( units: m ) */
(PID.TID 0000.0001)                 3.465707847078411E+03,      /* J =  1 */
(PID.TID 0000.0001)                 3.805206624156303E+03,      /* J =  2 */
(PID.TID 0000.0001)                 3.804146353147316E+03,      /* J =  3 */
(PID.TID 0000.0001)      . . .
(PID.TID 0000.0001)                 3.783683122673851E+03,      /* J = 21 */
(PID.TID 0000.0001)                 3.782622851664863E+03,      /* J = 22 */
(PID.TID 0000.0001)                 3.781456553554977E+03,      /* J = 23 */
(PID.TID 0000.0001)                 3.780290255445090E+03,      /* J = 24 */
(PID.TID 0000.0001)                 3.779123957335204E+03,      /* J = 25 */
(PID.TID 0000.0001)                 3.777957659225317E+03,      /* J = 26 */
(PID.TID 0000.0001)      . . .
(PID.TID 0000.0001)                 3.758448672659942E+03,      /* J = 43 */
(PID.TID 0000.0001)                 3.757282374550055E+03,      /* J = 44 */
(PID.TID 0000.0001)                 3.756116076440168E+03,      /* J = 45 */
(PID.TID 0000.0001)                 3.754949778330282E+03,      /* J = 46 */
(PID.TID 0000.0001)                 3.753889507321294E+03,      /* J = 47 */
(PID.TID 0000.0001)                 3.752723209211408E+03,      /* J = 48 */
(PID.TID 0000.0001)      . . .
(PID.TID 0000.0001)                 3.732896141343336E+03,      /* J = 65 */
(PID.TID 0000.0001)                 3.731729843233449E+03,      /* J = 66 */
(PID.TID 0000.0001)                 3.730457518022664E+03,      /* J = 67 */
(PID.TID 0000.0001)                 3.729291219912777E+03,      /* J = 68 */
(PID.TID 0000.0001)                 3.728124921802891E+03,      /* J = 69 */
(PID.TID 0000.0001)                 3.726958623693004E+03,      /* J = 70 */
(PID.TID 0000.0001)      . . .
(PID.TID 0000.0001)                 3.705647176412349E+03,      /* J = 88 */
(PID.TID 0000.0001)                 3.704480878302463E+03,      /* J = 89 */
(PID.TID 0000.0001)                 3.703314580192576E+03       /* J = 90 */
(PID.TID 0000.0001)     ;
(PID.TID 0000.0001) dxV =  /* dxV(:,1,:,1) ( units: m ) */
(PID.TID 0000.0001)    90 @  4.140261721044909E+03              /* I =  1: 90 */
(PID.TID 0000.0001)     ;
(PID.TID 0000.0001) dxV =  /* dxV(1,:,1,:) ( units: m ) */
(PID.TID 0000.0001)                 4.140261721044909E+03,      /* J =  1 */
(PID.TID 0000.0001)                 4.139019598272403E+03,      /* J =  2 */
(PID.TID 0000.0001)                 4.137776344777035E+03,      /* J =  3 */
(PID.TID 0000.0001)      . . .
(PID.TID 0000.0001)                 4.115210445004191E+03,      /* J = 21 */
(PID.TID 0000.0001)                 4.113946455960185E+03,      /* J = 22 */
(PID.TID 0000.0001)                 4.112681441584010E+03,      /* J = 23 */
(PID.TID 0000.0001)                 4.111415332734301E+03,      /* J = 24 */
(PID.TID 0000.0001)                 4.110148202207719E+03,      /* J = 25 */
(PID.TID 0000.0001)                 4.108879980698939E+03,      /* J = 26 */
(PID.TID 0000.0001)      . . .
(PID.TID 0000.0001)                 4.087159622456270E+03,      /* J = 43 */
(PID.TID 0000.0001)                 4.085872633696104E+03,      /* J = 44 */
(PID.TID 0000.0001)                 4.084584586739682E+03,      /* J = 45 */
(PID.TID 0000.0001)                 4.083295556063611E+03,      /* J = 46 */
(PID.TID 0000.0001)                 4.082005470653015E+03,      /* J = 47 */
(PID.TID 0000.0001)                 4.080714332157602E+03,      /* J = 48 */
(PID.TID 0000.0001)      . . .
(PID.TID 0000.0001)                 4.058611770197446E+03,      /* J = 65 */
(PID.TID 0000.0001)                 4.057302634073451E+03,      /* J = 66 */
(PID.TID 0000.0001)                 4.055992552010050E+03,      /* J = 67 */
(PID.TID 0000.0001)                 4.054681525880490E+03,      /* J = 68 */
(PID.TID 0000.0001)                 4.053369482901857E+03,      /* J = 69 */
(PID.TID 0000.0001)                 4.052056499442881E+03,      /* J = 70 */
(PID.TID 0000.0001)      . . .
(PID.TID 0000.0001)                 4.028257935157928E+03,      /* J = 88 */
(PID.TID 0000.0001)                 4.026926820812773E+03,      /* J = 89 */
(PID.TID 0000.0001)                 4.025594725676684E+03       /* J = 90 */
(PID.TID 0000.0001)     ;
(PID.TID 0000.0001) dyU =  /* dyU(:,1,:,1) ( units: m ) */
(PID.TID 0000.0001)    90 @  3.465707847078411E+03              /* I =  1: 90 */
(PID.TID 0000.0001)     ;
(PID.TID 0000.0001) dyU =  /* dyU(1,:,1,:) ( units: m ) */
(PID.TID 0000.0001)                 3.465707847078411E+03,      /* J =  1 */
(PID.TID 0000.0001)                 3.805206624156303E+03,      /* J =  2 */
(PID.TID 0000.0001)                 3.804146353147316E+03,      /* J =  3 */
(PID.TID 0000.0001)      . . .
(PID.TID 0000.0001)                 3.783683122673851E+03,      /* J = 21 */
(PID.TID 0000.0001)                 3.782622851664863E+03,      /* J = 22 */
(PID.TID 0000.0001)                 3.781456553554977E+03,      /* J = 23 */
(PID.TID 0000.0001)                 3.780290255445090E+03,      /* J = 24 */
(PID.TID 0000.0001)                 3.779123957335204E+03,      /* J = 25 */
(PID.TID 0000.0001)                 3.777957659225317E+03,      /* J = 26 */
(PID.TID 0000.0001)      . . .
(PID.TID 0000.0001)                 3.758448672659942E+03,      /* J = 43 */
(PID.TID 0000.0001)                 3.757282374550055E+03,      /* J = 44 */
(PID.TID 0000.0001)                 3.756116076440168E+03,      /* J = 45 */
(PID.TID 0000.0001)                 3.754949778330282E+03,      /* J = 46 */
(PID.TID 0000.0001)                 3.753889507321294E+03,      /* J = 47 */
(PID.TID 0000.0001)                 3.752723209211408E+03,      /* J = 48 */
(PID.TID 0000.0001)      . . .
(PID.TID 0000.0001)                 3.732896141343336E+03,      /* J = 65 */
(PID.TID 0000.0001)                 3.731729843233449E+03,      /* J = 66 */
(PID.TID 0000.0001)                 3.730457518022664E+03,      /* J = 67 */
(PID.TID 0000.0001)                 3.729291219912777E+03,      /* J = 68 */
(PID.TID 0000.0001)                 3.728124921802891E+03,      /* J = 69 */
(PID.TID 0000.0001)                 3.726958623693004E+03,      /* J = 70 */
(PID.TID 0000.0001)      . . .
(PID.TID 0000.0001)                 3.705647176412349E+03,      /* J = 88 */
(PID.TID 0000.0001)                 3.704480878302463E+03,      /* J = 89 */
(PID.TID 0000.0001)                 3.703314580192576E+03       /* J = 90 */
(PID.TID 0000.0001)     ;
(PID.TID 0000.0001) rA  =  /* rA (:,1,:,1) ( units: m^2 ) */
(PID.TID 0000.0001)    90 @  1.575438309886870E+07              /* I =  1: 90 */
(PID.TID 0000.0001)     ;
(PID.TID 0000.0001) rA  =  /* rA (1,:,1,:) ( units: m^2 ) */
(PID.TID 0000.0001)                 1.575438309886870E+07,      /* J =  1 */
(PID.TID 0000.0001)                 1.574526593103012E+07,      /* J =  2 */
(PID.TID 0000.0001)                 1.573614710072067E+07,      /* J =  3 */
(PID.TID 0000.0001)      . . .
(PID.TID 0000.0001)                 1.556651647028628E+07,      /* J = 21 */
(PID.TID 0000.0001)                 1.555649905915226E+07,      /* J = 22 */
(PID.TID 0000.0001)                 1.554735283576100E+07,      /* J = 23 */
(PID.TID 0000.0001)                 1.553733358804201E+07,      /* J = 24 */
(PID.TID 0000.0001)                 1.552818501201680E+07,      /* J = 25 */
(PID.TID 0000.0001)                 1.551816396996124E+07,      /* J = 26 */
(PID.TID 0000.0001)      . . .
(PID.TID 0000.0001)                 1.535636187397145E+07,      /* J = 43 */
(PID.TID 0000.0001)                 1.534719217327880E+07,      /* J = 44 */
(PID.TID 0000.0001)                 1.533715535169233E+07,      /* J = 45 */
(PID.TID 0000.0001)                 1.532798372586704E+07,      /* J = 46 */
(PID.TID 0000.0001)                 1.531881087890220E+07,      /* J = 47 */
(PID.TID 0000.0001)                 1.530877176172662E+07,      /* J = 48 */
(PID.TID 0000.0001)      . . .
(PID.TID 0000.0001)                 1.514578194771098E+07,      /* J = 65 */
(PID.TID 0000.0001)                 1.513573263166044E+07,      /* J = 66 */
(PID.TID 0000.0001)                 1.512568312341997E+07,      /* J = 67 */
(PID.TID 0000.0001)                 1.511649296761149E+07,      /* J = 68 */
(PID.TID 0000.0001)                 1.510644254990678E+07,      /* J = 69 */
(PID.TID 0000.0001)                 1.509725094811608E+07,      /* J = 70 */
(PID.TID 0000.0001)      . . .
(PID.TID 0000.0001)                 1.492227454024103E+07,      /* J = 88 */
(PID.TID 0000.0001)                 1.491307200194015E+07,      /* J = 89 */
(PID.TID 0000.0001)                 1.490301529699830E+07       /* J = 90 */
(PID.TID 0000.0001)     ;
(PID.TID 0000.0001) rAw =  /* rAw(:,1,:,1) ( units: m^2 ) */
(PID.TID 0000.0001)    90 @  1.575438309886870E+07              /* I =  1: 90 */
(PID.TID 0000.0001)     ;
(PID.TID 0000.0001) rAw =  /* rAw(1,:,1,:) ( units: m^2 ) */
(PID.TID 0000.0001)                 1.575438309886870E+07,      /* J =  1 */
(PID.TID 0000.0001)                 1.574526593103012E+07,      /* J =  2 */
(PID.TID 0000.0001)                 1.573614710072067E+07,      /* J =  3 */
(PID.TID 0000.0001)      . . .
(PID.TID 0000.0001)                 1.556651647028628E+07,      /* J = 21 */
(PID.TID 0000.0001)                 1.555649905915226E+07,      /* J = 22 */
(PID.TID 0000.0001)                 1.554735283576100E+07,      /* J = 23 */
(PID.TID 0000.0001)                 1.553733358804201E+07,      /* J = 24 */
(PID.TID 0000.0001)                 1.552818501201680E+07,      /* J = 25 */
(PID.TID 0000.0001)                 1.551816396996124E+07,      /* J = 26 */
(PID.TID 0000.0001)      . . .
(PID.TID 0000.0001)                 1.535636187397145E+07,      /* J = 43 */
(PID.TID 0000.0001)                 1.534719217327880E+07,      /* J = 44 */
(PID.TID 0000.0001)                 1.533715535169233E+07,      /* J = 45 */
(PID.TID 0000.0001)                 1.532798372586704E+07,      /* J = 46 */
(PID.TID 0000.0001)                 1.531881087890220E+07,      /* J = 47 */
(PID.TID 0000.0001)                 1.530877176172662E+07,      /* J = 48 */
(PID.TID 0000.0001)      . . .
(PID.TID 0000.0001)                 1.514578194771098E+07,      /* J = 65 */
(PID.TID 0000.0001)                 1.513573263166044E+07,      /* J = 66 */
(PID.TID 0000.0001)                 1.512568312341997E+07,      /* J = 67 */
(PID.TID 0000.0001)                 1.511649296761149E+07,      /* J = 68 */
(PID.TID 0000.0001)                 1.510644254990678E+07,      /* J = 69 */
(PID.TID 0000.0001)                 1.509725094811608E+07,      /* J = 70 */
(PID.TID 0000.0001)      . . .
(PID.TID 0000.0001)                 1.492227454024103E+07,      /* J = 88 */
(PID.TID 0000.0001)                 1.491307200194015E+07,      /* J = 89 */
(PID.TID 0000.0001)                 1.490301529699830E+07       /* J = 90 */
(PID.TID 0000.0001)     ;
(PID.TID 0000.0001) rAs =  /* rAs(:,1,:,1) ( units: m^2 ) */
(PID.TID 0000.0001)    90 @  1.434874515713397E+07              /* I =  1: 90 */
(PID.TID 0000.0001)     ;
(PID.TID 0000.0001) rAs =  /* rAs(1,:,1,:) ( units: m^2 ) */
(PID.TID 0000.0001)                 1.434874515713397E+07,      /* J =  1 */
(PID.TID 0000.0001)                 1.574982488807916E+07,      /* J =  2 */
(PID.TID 0000.0001)                 1.574070688790848E+07,      /* J =  3 */
(PID.TID 0000.0001)      . . .
(PID.TID 0000.0001)                 1.557065234602267E+07,      /* J = 21 */
(PID.TID 0000.0001)                 1.556150804841762E+07,      /* J = 22 */
(PID.TID 0000.0001)                 1.555192629706736E+07,      /* J = 23 */
(PID.TID 0000.0001)                 1.554234349323534E+07,      /* J = 24 */
(PID.TID 0000.0001)                 1.553275964738865E+07,      /* J = 25 */
(PID.TID 0000.0001)                 1.552317476996653E+07,      /* J = 26 */
(PID.TID 0000.0001)      . . .
(PID.TID 0000.0001)                 1.536137984435806E+07,      /* J = 43 */
(PID.TID 0000.0001)                 1.535177734997811E+07,      /* J = 44 */
(PID.TID 0000.0001)                 1.534217401942485E+07,      /* J = 45 */
(PID.TID 0000.0001)                 1.533256986292950E+07,      /* J = 46 */
(PID.TID 0000.0001)                 1.532339762548036E+07,      /* J = 47 */
(PID.TID 0000.0001)                 1.531379157383674E+07,      /* J = 48 */
(PID.TID 0000.0001)      . . .
(PID.TID 0000.0001)                 1.515037634627304E+07,      /* J = 65 */
(PID.TID 0000.0001)                 1.514075752265306E+07,      /* J = 66 */
(PID.TID 0000.0001)                 1.513070810933390E+07,      /* J = 67 */
(PID.TID 0000.0001)                 1.512108834570999E+07,      /* J = 68 */
(PID.TID 0000.0001)                 1.511146798829233E+07,      /* J = 69 */
(PID.TID 0000.0001)                 1.510184704705331E+07,      /* J = 70 */
(PID.TID 0000.0001)      . . .
(PID.TID 0000.0001)                 1.492730285605174E+07,      /* J = 88 */
(PID.TID 0000.0001)                 1.491767354877487E+07,      /* J = 89 */
(PID.TID 0000.0001)                 1.490804385545228E+07       /* J = 90 */
(PID.TID 0000.0001)     ;
(PID.TID 0000.0001) globalArea = /* Integrated horizontal Area (m^2) */
(PID.TID 0000.0001)                 1.130146430983181E+13
(PID.TID 0000.0001)     ;
(PID.TID 0000.0001) // =======================================================
(PID.TID 0000.0001) // End of Model config. summary
(PID.TID 0000.0001) // =======================================================
(PID.TID 0000.0001) 
(PID.TID 0000.0001) == Packages configuration : Check & print summary ==
(PID.TID 0000.0001) 
(PID.TID 0000.0001) OBCS_CHECK: #define ALLOW_OBCS
(PID.TID 0000.0001) OBCS_CHECK: start summary:
(PID.TID 0000.0001) useOBCSprescribe = /* prescribe OB values */
(PID.TID 0000.0001)                   T
(PID.TID 0000.0001)     ;
(PID.TID 0000.0001) useOBCSbalance = /* balance the flow through OB */
(PID.TID 0000.0001)                   T
(PID.TID 0000.0001)     ;
(PID.TID 0000.0001) OBCS_balanceFacN = /* Northern OB Factor for balancing OB flow [-] */
(PID.TID 0000.0001)                -1.000000000000000E+00
(PID.TID 0000.0001)     ;
(PID.TID 0000.0001) OBCS_balanceFacS = /* Southern OB Factor for balancing OB flow [-] */
(PID.TID 0000.0001)                -1.000000000000000E+00
(PID.TID 0000.0001)     ;
(PID.TID 0000.0001) OBCS_balanceFacE = /* Eastern  OB Factor for balancing OB flow [-] */
(PID.TID 0000.0001)                 1.000000000000000E+00
(PID.TID 0000.0001)     ;
(PID.TID 0000.0001) OBCS_balanceFacW = /* Western  OB Factor for balancing OB flow [-] */
(PID.TID 0000.0001)                 1.000000000000000E+00
(PID.TID 0000.0001)     ;
(PID.TID 0000.0001) OBCS_uvApplyFac = /* Factor to apply to U,V 2nd column/row */
(PID.TID 0000.0001)                 1.000000000000000E+00
(PID.TID 0000.0001)     ;
(PID.TID 0000.0001) OBCS_u1_adv_T = /* Temp uses upwind adv-scheme @ OB */
(PID.TID 0000.0001)                       1
(PID.TID 0000.0001)     ;
(PID.TID 0000.0001) OBCS_u1_adv_S = /* Salt uses upwind adv-scheme @ OB */
(PID.TID 0000.0001)                       1
(PID.TID 0000.0001)     ;
(PID.TID 0000.0001) OBCS_monitorFreq = /* monitor output frequency [s] */
(PID.TID 0000.0001)                 2.400000000000000E+02
(PID.TID 0000.0001)     ;
(PID.TID 0000.0001) OBCS_monSelect = /* select group of variables to monitor */
(PID.TID 0000.0001)                       3
(PID.TID 0000.0001)     ;
(PID.TID 0000.0001) useOBCStides = /* apply tidal forcing through OB */
(PID.TID 0000.0001)                   T
(PID.TID 0000.0001)     ;
(PID.TID 0000.0001) tidalPeriod = /* (s) */
(PID.TID 0000.0001)                 4.471416500000000E+04,      /* I =  1 */
(PID.TID 0000.0001)                 4.320000100000000E+04,      /* I =  2 */
(PID.TID 0000.0001)                 4.557005400000000E+04,      /* I =  3 */
(PID.TID 0000.0001)                 4.308205000000000E+04,      /* I =  4 */
(PID.TID 0000.0001)                 8.616407700000000E+04,      /* I =  5 */
(PID.TID 0000.0001)                 9.294963600000000E+04,      /* I =  6 */
(PID.TID 0000.0001)                 8.663720000000000E+04,      /* I =  7 */
(PID.TID 0000.0001)                 9.672608600000000E+04,      /* I =  8 */
(PID.TID 0000.0001)                 1.180295546000000E+06,      /* I =  9 */
(PID.TID 0000.0001)                 2.380715864000000E+06,      /* I = 10 */
(PID.TID 0000.0001)                 2.235709100000000E+04,      /* I = 11 */
(PID.TID 0000.0001)                 2.197202200000000E+04,      /* I = 12 */
(PID.TID 0000.0001)                 2.256904200000000E+04       /* I = 13 */
(PID.TID 0000.0001)     ;
(PID.TID 0000.0001) OB_indexNone = /* null value for OB index (i.e. no OB) */
(PID.TID 0000.0001)                     -99
(PID.TID 0000.0001)     ;
(PID.TID 0000.0001) ======== Tile bi=   1 , bj=   1 ========
(PID.TID 0000.0001)  OB_Jn = /* Northern OB local indices */
(PID.TID 0000.0001)    98 @      -99                            /* I = -3: 94 */
(PID.TID 0000.0001)  OB_Js = /* Southern OB local indices */
(PID.TID 0000.0001)     4 @      -99,                           /* I = -3:  0 */
(PID.TID 0000.0001)    94 @        8                            /* I =  1: 94 */
(PID.TID 0000.0001)  OB_Ie = /* Eastern OB local indices */
(PID.TID 0000.0001)    98 @      -99                            /* J = -3: 94 */
(PID.TID 0000.0001)  OB_Iw = /* Western OB local indices */
(PID.TID 0000.0001)    98 @      -99                            /* J = -3: 94 */
(PID.TID 0000.0001) OBCS_CHECK: end summary.
(PID.TID 0000.0001) OBCS_CHECK: set-up OK
(PID.TID 0000.0001) OBCS_CHECK: check Inside Mask and OB locations: OK
(PID.TID 0000.0001) KPP_CHECK: #define ALLOW_KPP
(PID.TID 0000.0001)  kpp_freq = /* frequency of KPP calculation */
(PID.TID 0000.0001)                 2.400000000000000E+02
(PID.TID 0000.0001)     ;
(PID.TID 0000.0001) KPP_ghatUseTotalDiffus= /* non-local term fct of total diffus */
(PID.TID 0000.0001)                   F
(PID.TID 0000.0001)     ;
(PID.TID 0000.0001) KPPuseDoubleDiff = /* include double diffusive contrib */
(PID.TID 0000.0001)                   F
(PID.TID 0000.0001)     ;
(PID.TID 0000.0001) LimitHblStable = /* limits depth of hbl if stable cond.*/
(PID.TID 0000.0001)                   T
(PID.TID 0000.0001)     ;
(PID.TID 0000.0001)  minKPPhbl = /* minimum KPPhbl value [m] */
(PID.TID 0000.0001)                 2.500000000000000E+00
(PID.TID 0000.0001)     ;
(PID.TID 0000.0001)  epsln     = /* constant [-] */
(PID.TID 0000.0001)                 9.999999999999999E-21
(PID.TID 0000.0001)     ;
(PID.TID 0000.0001)  phepsi    = /* constant [-] */
(PID.TID 0000.0001)                 1.000000000000000E-10
(PID.TID 0000.0001)     ;
(PID.TID 0000.0001)  epsilon   = /* constant [-] */
(PID.TID 0000.0001)                 1.000000000000000E-01
(PID.TID 0000.0001)     ;
(PID.TID 0000.0001)  vonk      = /* Von Karmans constant [-] */
(PID.TID 0000.0001)                 4.000000000000000E-01
(PID.TID 0000.0001)     ;
(PID.TID 0000.0001)  dB_dz     = /* maximum N^2 in mixed layer [s^-2] */
(PID.TID 0000.0001)                 5.200000000000000E-05
(PID.TID 0000.0001)     ;
(PID.TID 0000.0001)  conc1     = /* scalar constant [-] */
(PID.TID 0000.0001)                 5.000000000000000E+00
(PID.TID 0000.0001)     ;
(PID.TID 0000.0001)  conam     = /* scalar constant [-] */
(PID.TID 0000.0001)                 1.257000000000000E+00
(PID.TID 0000.0001)     ;
(PID.TID 0000.0001)  concm     = /* scalar constant [-] */
(PID.TID 0000.0001)                 8.380000000000001E+00
(PID.TID 0000.0001)     ;
(PID.TID 0000.0001)  conc2     = /* scalar constant [-] */
(PID.TID 0000.0001)                 1.600000000000000E+01
(PID.TID 0000.0001)     ;
(PID.TID 0000.0001)  conas     = /* scalar constant [-] */
(PID.TID 0000.0001)                -2.886000000000000E+01
(PID.TID 0000.0001)     ;
(PID.TID 0000.0001)  concs     = /* scalar constant [-] */
(PID.TID 0000.0001)                 9.895999999999999E+01
(PID.TID 0000.0001)     ;
(PID.TID 0000.0001)  conc3     = /* scalar constant [-] */
(PID.TID 0000.0001)                 1.600000000000000E+01
(PID.TID 0000.0001)     ;
(PID.TID 0000.0001)  zetam     = /* scalar constant [-] */
(PID.TID 0000.0001)                -2.000000000000000E-01
(PID.TID 0000.0001)     ;
(PID.TID 0000.0001)  zetas     = /* scalar constant [-] */
(PID.TID 0000.0001)                -1.000000000000000E+00
(PID.TID 0000.0001)     ;
(PID.TID 0000.0001)  Ricr      = /* critical bulk Richardson Number [-] */
(PID.TID 0000.0001)                 3.000000000000000E-01
(PID.TID 0000.0001)     ;
(PID.TID 0000.0001)  cekman    = /* coeff for Ekman depth [-] */
(PID.TID 0000.0001)                 7.000000000000000E-01
(PID.TID 0000.0001)     ;
(PID.TID 0000.0001)  cmonob    = /* coeff for Monin-Obukhov depth [-] */
(PID.TID 0000.0001)                 1.000000000000000E+00
(PID.TID 0000.0001)     ;
(PID.TID 0000.0001)  concv     = /* buoyancy freq ratio [-] */
(PID.TID 0000.0001)                 1.800000000000000E+00
(PID.TID 0000.0001)     ;
(PID.TID 0000.0001)  hbf       = /* solar radiation depth ratio [-] */
(PID.TID 0000.0001)                 1.000000000000000E+00
(PID.TID 0000.0001)     ;
(PID.TID 0000.0001)  zmin      = /* minimum for zehat in table [m3/s3] */
(PID.TID 0000.0001)                -4.000000000000000E-07
(PID.TID 0000.0001)     ;
(PID.TID 0000.0001)  zmax      = /* maximum for zehat in table [m3/s3] */
(PID.TID 0000.0001)                 0.000000000000000E+00
(PID.TID 0000.0001)     ;
(PID.TID 0000.0001)  umin      = /* minimum for ustar in table [m/s] */
(PID.TID 0000.0001)                 0.000000000000000E+00
(PID.TID 0000.0001)     ;
(PID.TID 0000.0001)  umax      = /* maximum for ustar in table [m/s] */
(PID.TID 0000.0001)                 4.000000000000000E-02
(PID.TID 0000.0001)     ;
(PID.TID 0000.0001) num_v_smooth_Ri = /* number of vertical smoothing */
(PID.TID 0000.0001)                       0
(PID.TID 0000.0001)     ;
(PID.TID 0000.0001)  Riinfty   = /* shear instability Ri number limit [-] */
(PID.TID 0000.0001)                 7.000000000000000E-01
(PID.TID 0000.0001)     ;
(PID.TID 0000.0001)  BVSQcon   = /* Brunt-Vaisala squared (=N^2) [s^-2] */
(PID.TID 0000.0001)                -2.000000000000000E-05
(PID.TID 0000.0001)     ;
(PID.TID 0000.0001)  difm0     = /* max viscosity from shear instab. [m2/s] */
(PID.TID 0000.0001)                 5.000000000000000E-03
(PID.TID 0000.0001)     ;
(PID.TID 0000.0001)  difs0     = /* max diffusiv. from shear instab. [m2/s] */
(PID.TID 0000.0001)                 5.000000000000000E-03
(PID.TID 0000.0001)     ;
(PID.TID 0000.0001)  dift0     = /* max diffusiv. from shear instab. [m2/s] */
(PID.TID 0000.0001)                 5.000000000000000E-03
(PID.TID 0000.0001)     ;
(PID.TID 0000.0001)  difmcon   = /* convective viscosity [m2/s] */
(PID.TID 0000.0001)                 1.000000000000000E-01
(PID.TID 0000.0001)     ;
(PID.TID 0000.0001)  difscon   = /* convective diffusiv. [m2/s] */
(PID.TID 0000.0001)                 1.000000000000000E-01
(PID.TID 0000.0001)     ;
(PID.TID 0000.0001)  diftcon   = /* convective diffusiv. [m2/s] */
(PID.TID 0000.0001)                 1.000000000000000E-01
(PID.TID 0000.0001)     ;
(PID.TID 0000.0001)  Rrho0     = /* double diffusion density ratio [-] */
(PID.TID 0000.0001)                 1.900000000000000E+00
(PID.TID 0000.0001)     ;
(PID.TID 0000.0001)  dsfmax    = /* max diffusiv. for salt fingering [m2/s] */
(PID.TID 0000.0001)                 1.000000000000000E-02
(PID.TID 0000.0001)     ;
(PID.TID 0000.0001)  cstar     = /* coeff for non-locak transport [-] */
(PID.TID 0000.0001)                 1.000000000000000E+01
(PID.TID 0000.0001)     ;
(PID.TID 0000.0001) KPPwriteState = /* write KPP fields to file */
(PID.TID 0000.0001)                   F
(PID.TID 0000.0001)     ;
(PID.TID 0000.0001)  kpp_dumpFreq = /* dump freq of KPP output */
(PID.TID 0000.0001)                 0.000000000000000E+00
(PID.TID 0000.0001)     ;
(PID.TID 0000.0001)  kpp_taveFreq = /* time-averaging freq of KPP output */
(PID.TID 0000.0001)                 0.000000000000000E+00
(PID.TID 0000.0001)     ;
(PID.TID 0000.0001) 
(PID.TID 0000.0001) EXF_CHECK: #define ALLOW_EXF
(PID.TID 0000.0001) GAD_CHECK: #define ALLOW_GENERIC_ADVDIFF
(PID.TID 0000.0001) // =======================================================
(PID.TID 0000.0001) // Check Model config. (CONFIG_CHECK):
(PID.TID 0000.0001) // CONFIG_CHECK : Normal End
(PID.TID 0000.0001) // =======================================================
(PID.TID 0000.0001) 
(PID.TID 0000.0001)  MDS_READ_FIELD: opening global file: U0_2160x540x100.bin
(PID.TID 0000.0001)  MDS_READ_FIELD: opening global file: V0_2160x540x100.bin
(PID.TID 0000.0001)  MDS_READ_FIELD: opening global file: T0_2160x540x100.bin
(PID.TID 0000.0001)  MDS_READ_FIELD: opening global file: S0_2160x540x100.bin
(PID.TID 0000.0001) Start initial hydrostatic pressure computation
(PID.TID 0000.0001) Pressure is predetermined for buoyancyRelation OCEANIC
(PID.TID 0000.0001) 
(PID.TID 0000.0001)  write diagnostics summary to file ioUnit:      6
Iter.Nb:         0 ; Time(s):  0.0000000000000E+00
------------------------------------------------------------------------
2D/3D diagnostics: Number of lists:     2
------------------------------------------------------------------------
listId=    1 ; file name: diags/surface
 nFlds, nActive,       freq     &     phase        , nLev               
    5  |    5  |      3600.000000         0.000000 |   1
 levels:   1
 diag# | name   |   ipt  |  iMate | kLev|   count |   mate.C|           
    23 |ETAN    |      1 |      0 |   1 |       0 |
    80 |oceTAUX |      2 |      3 |   1 |       0 |       0 |
    81 |oceTAUY |      3 |      2 |   1 |       0 |       0 |
   185 |EXFuwind|      4 |      0 |   1 |       0 |
   186 |EXFvwind|      5 |      0 |   1 |       0 |
------------------------------------------------------------------------
listId=    2 ; file name: diags/interior
 nFlds, nActive,       freq     &     phase        , nLev               
    9  |    9  |   2592000.000000         0.000000 | 100
 levels:   1   2   3   4   5   6   7   8   9  10  11  12  13  14  15  16  17  18  19  20  21  22  23  24  25
 levels:  26  27  28  29  30  31  32  33  34  35  36  37  38  39  40  41  42  43  44  45  46  47  48  49  50
 levels:  51  52  53  54  55  56  57  58  59  60  61  62  63  64  65  66  67  68  69  70  71  72  73  74  75
 levels:  76  77  78  79  80  81  82  83  84  85  86  87  88  89  90  91  92  93  94  95  96  97  98  99 100
 diag# | name   |   ipt  |  iMate | kLev|   count |   mate.C|           
    26 |THETA   |      6 |      0 | 100 |       0 |
    27 |SALT    |    106 |      0 | 100 |       0 |
    30 |UVEL    |    206 |    306 | 100 |       0 |       0 |
    31 |VVEL    |    306 |    206 | 100 |       0 |       0 |
    32 |WVEL    |    406 |      0 | 100 |       0 |
    36 |UVELSQ  |    506 |    606 | 100 |       0 |       0 |
    37 |VVELSQ  |    606 |    506 | 100 |       0 |       0 |
    52 |WTHMASS |    706 |      0 | 100 |       0 |
    55 |WSLTMASS|    806 |      0 | 100 |       0 |
------------------------------------------------------------------------
Global & Regional Statistics diagnostics: Number of lists:     0
------------------------------------------------------------------------
(PID.TID 0000.0001)  MDS_READ_SEC_XZ: opening global file: OBNam_2160x13.bin
(PID.TID 0000.0001)  MDS_READ_SEC_XZ: opening global file: OBNph_2160x13.bin
(PID.TID 0000.0001)  MDS_READ_SEC_XZ: opening global file: OBSam_2160x13.bin
(PID.TID 0000.0001)  MDS_READ_SEC_XZ: opening global file: OBSph_2160x13.bin
(PID.TID 0000.0001)  MDS_READ_SEC_XZ: opening global file: OBNu_2160x100x26.bin
(PID.TID 0000.0001)  MDS_READ_SEC_XZ: opening global file: OBNu_2160x100x26.bin
(PID.TID 0000.0001)  MDS_READ_SEC_XZ: opening global file: OBNv_2160x100x26.bin
(PID.TID 0000.0001)  MDS_READ_SEC_XZ: opening global file: OBNv_2160x100x26.bin
(PID.TID 0000.0001)  MDS_READ_SEC_XZ: opening global file: OBNt_2160x100x26.bin
(PID.TID 0000.0001)  MDS_READ_SEC_XZ: opening global file: OBNt_2160x100x26.bin
(PID.TID 0000.0001)  MDS_READ_SEC_XZ: opening global file: OBNs_2160x100x26.bin
(PID.TID 0000.0001)  MDS_READ_SEC_XZ: opening global file: OBNs_2160x100x26.bin
(PID.TID 0000.0001)  MDS_READ_SEC_XZ: opening global file: OBSu_2160x100x26.bin
(PID.TID 0000.0001)  MDS_READ_SEC_XZ: opening global file: OBSu_2160x100x26.bin
(PID.TID 0000.0001)  MDS_READ_SEC_XZ: opening global file: OBSv_2160x100x26.bin
(PID.TID 0000.0001)  MDS_READ_SEC_XZ: opening global file: OBSv_2160x100x26.bin
(PID.TID 0000.0001)  MDS_READ_SEC_XZ: opening global file: OBSt_2160x100x26.bin
(PID.TID 0000.0001)  MDS_READ_SEC_XZ: opening global file: OBSt_2160x100x26.bin
(PID.TID 0000.0001)  MDS_READ_SEC_XZ: opening global file: OBSs_2160x100x26.bin
(PID.TID 0000.0001)  MDS_READ_SEC_XZ: opening global file: OBSs_2160x100x26.bin
(PID.TID 0000.0001) // =======================================================
(PID.TID 0000.0001) // Model current state
(PID.TID 0000.0001) // =======================================================
(PID.TID 0000.0001) 
(PID.TID 0000.0001) // =======================================================
(PID.TID 0000.0001) // Begin MONITOR dynamic field statistics
(PID.TID 0000.0001) // =======================================================
(PID.TID 0000.0001) %MON time_tsnumber                =                     0
(PID.TID 0000.0001) %MON time_secondsf                =   0.0000000000000E+00
(PID.TID 0000.0001) %MON dynstat_eta_max              =   0.0000000000000E+00
(PID.TID 0000.0001) %MON dynstat_eta_min              =   0.0000000000000E+00
(PID.TID 0000.0001) %MON dynstat_eta_mean             =   0.0000000000000E+00
(PID.TID 0000.0001) %MON dynstat_eta_sd               =   0.0000000000000E+00
(PID.TID 0000.0001) %MON dynstat_eta_del2             =   0.0000000000000E+00
(PID.TID 0000.0001) %MON dynstat_uvel_max             =   1.2655940055847E+00
(PID.TID 0000.0001) %MON dynstat_uvel_min             =  -6.7179697751999E-01
(PID.TID 0000.0001) %MON dynstat_uvel_mean            =   3.8933782453988E-03
(PID.TID 0000.0001) %MON dynstat_uvel_sd              =   5.2086469330268E-02
(PID.TID 0000.0001) %MON dynstat_uvel_del2            =   3.0019794494422E-07
(PID.TID 0000.0001) %MON dynstat_vvel_max             =   1.8766679377822E+00
(PID.TID 0000.0001) %MON dynstat_vvel_min             =  -8.8630950450897E-01
(PID.TID 0000.0001) %MON dynstat_vvel_mean            =  -1.8315008085781E-04
(PID.TID 0000.0001) %MON dynstat_vvel_sd              =   4.8401112616991E-02
(PID.TID 0000.0001) %MON dynstat_vvel_del2            =   3.9531900049683E-07
(PID.TID 0000.0001) %MON dynstat_wvel_max             =   8.0878572016153E-02
(PID.TID 0000.0001) %MON dynstat_wvel_min             =  -1.0644865410817E-01
(PID.TID 0000.0001) %MON dynstat_wvel_mean            =  -1.8564800099859E-06
(PID.TID 0000.0001) %MON dynstat_wvel_sd              =   1.3360682389456E-03
(PID.TID 0000.0001) %MON dynstat_wvel_del2            =   3.7531921664199E-07
(PID.TID 0000.0001) %MON dynstat_theta_max            =   2.6144617080688E+01
(PID.TID 0000.0001) %MON dynstat_theta_min            =   1.4688636064529E+00
(PID.TID 0000.0001) %MON dynstat_theta_mean           =   5.5098811020494E+00
(PID.TID 0000.0001) %MON dynstat_theta_sd             =   4.7735348546542E+00
(PID.TID 0000.0001) %MON dynstat_theta_del2           =   4.0189244228695E-06
(PID.TID 0000.0001) %MON dynstat_salt_max             =   3.9185241699219E+01
(PID.TID 0000.0001) %MON dynstat_salt_min             =   3.3089591979980E+01
(PID.TID 0000.0001) %MON dynstat_salt_mean            =   3.5173374558496E+01
(PID.TID 0000.0001) %MON dynstat_salt_sd              =   3.7891790794924E-01
(PID.TID 0000.0001) %MON dynstat_salt_del2            =   4.9655867703385E-07
(PID.TID 0000.0001) %MON dynstat_sst_max              =   2.6144517898560E+01
(PID.TID 0000.0001) %MON dynstat_sst_min              =   4.0907053947449E+00
(PID.TID 0000.0001) %MON dynstat_sst_mean             =   1.9650344179206E+01
(PID.TID 0000.0001) %MON dynstat_sst_sd               =   3.6388127143234E+00
(PID.TID 0000.0001) %MON dynstat_sst_del2             =   1.9236263370514E-05
(PID.TID 0000.0001) %MON dynstat_sss_max              =   3.7335128784180E+01
(PID.TID 0000.0001) %MON dynstat_sss_min              =   3.3089591979980E+01
(PID.TID 0000.0001) %MON dynstat_sss_mean             =   3.5867950426451E+01
(PID.TID 0000.0001) %MON dynstat_sss_sd               =   4.8717343265566E-01
(PID.TID 0000.0001) %MON dynstat_sss_del2             =   5.0430181870384E-06
(PID.TID 0000.0001) %MON forcing_qnet_max             =   0.0000000000000E+00
(PID.TID 0000.0001) %MON forcing_qnet_min             =   0.0000000000000E+00
(PID.TID 0000.0001) %MON forcing_qnet_mean            =   0.0000000000000E+00
(PID.TID 0000.0001) %MON forcing_qnet_sd              =   0.0000000000000E+00
(PID.TID 0000.0001) %MON forcing_qnet_del2            =   0.0000000000000E+00
(PID.TID 0000.0001) %MON forcing_qsw_max              =   0.0000000000000E+00
(PID.TID 0000.0001) %MON forcing_qsw_min              =   0.0000000000000E+00
(PID.TID 0000.0001) %MON forcing_qsw_mean             =   0.0000000000000E+00
(PID.TID 0000.0001) %MON forcing_qsw_sd               =   0.0000000000000E+00
(PID.TID 0000.0001) %MON forcing_qsw_del2             =   0.0000000000000E+00
(PID.TID 0000.0001) %MON forcing_empmr_max            =   0.0000000000000E+00
(PID.TID 0000.0001) %MON forcing_empmr_min            =   0.0000000000000E+00
(PID.TID 0000.0001) %MON forcing_empmr_mean           =   0.0000000000000E+00
(PID.TID 0000.0001) %MON forcing_empmr_sd             =   0.0000000000000E+00
(PID.TID 0000.0001) %MON forcing_empmr_del2           =   0.0000000000000E+00
(PID.TID 0000.0001) %MON forcing_fu_max               =   0.0000000000000E+00
(PID.TID 0000.0001) %MON forcing_fu_min               =   0.0000000000000E+00
(PID.TID 0000.0001) %MON forcing_fu_mean              =   0.0000000000000E+00
(PID.TID 0000.0001) %MON forcing_fu_sd                =   0.0000000000000E+00
(PID.TID 0000.0001) %MON forcing_fu_del2              =   0.0000000000000E+00
(PID.TID 0000.0001) %MON forcing_fv_max               =   0.0000000000000E+00
(PID.TID 0000.0001) %MON forcing_fv_min               =   0.0000000000000E+00
(PID.TID 0000.0001) %MON forcing_fv_mean              =   0.0000000000000E+00
(PID.TID 0000.0001) %MON forcing_fv_sd                =   0.0000000000000E+00
(PID.TID 0000.0001) %MON forcing_fv_del2              =   0.0000000000000E+00
(PID.TID 0000.0001) %MON trAdv_CFL_u_max              =   0.0000000000000E+00
(PID.TID 0000.0001) %MON trAdv_CFL_v_max              =   0.0000000000000E+00
(PID.TID 0000.0001) %MON trAdv_CFL_w_max              =   0.0000000000000E+00
(PID.TID 0000.0001) %MON advcfl_uvel_max              =   7.6757822680034E-02
(PID.TID 0000.0001) %MON advcfl_vvel_max              =   1.1860877864772E-01
(PID.TID 0000.0001) %MON advcfl_wvel_max              =   1.0219070794384E+01
(PID.TID 0000.0001) %MON advcfl_W_hf_max              =   5.0990576573765E+00
(PID.TID 0000.0001) %MON pe_b_mean                    =   0.0000000000000E+00
(PID.TID 0000.0001) %MON ke_max                       =   1.6014653258787E+00
(PID.TID 0000.0001) %MON ke_mean                      =   2.5166672230983E-03
(PID.TID 0000.0001) %MON ke_vol                       =   4.5818637279720E+16
(PID.TID 0000.0001) %MON vort_r_min                   =  -2.7112786765354E-04
(PID.TID 0000.0001) %MON vort_r_max                   =   4.5284213837033E-04
(PID.TID 0000.0001) %MON vort_a_mean                  =   8.2147631506710E-05
(PID.TID 0000.0001) %MON vort_a_sd                    =   1.0110316133288E-05
(PID.TID 0000.0001) %MON vort_p_mean                  =   8.4848853092653E-05
(PID.TID 0000.0001) %MON vort_p_sd                    =   3.4983760879124E-05
(PID.TID 0000.0001) %MON surfExpan_theta_mean         =   2.0592395504451E-05
(PID.TID 0000.0001) %MON surfExpan_salt_mean          =  -1.7210634086920E-04
(PID.TID 0000.0001) // =======================================================
(PID.TID 0000.0001) // End MONITOR dynamic field statistics
(PID.TID 0000.0001) // =======================================================
(PID.TID 0000.0001) // =======================================================
(PID.TID 0000.0001) // Begin OBCS MONITOR field statistics
(PID.TID 0000.0001) // =======================================================
(PID.TID 0000.0001) %MON obc_N_vVel_max               =   6.9579085314553E-01
(PID.TID 0000.0001) %MON obc_N_vVel_min               =  -3.2183263391360E-01
(PID.TID 0000.0001) %MON obc_N_vVel_mean              =   1.3107185862961E-02
(PID.TID 0000.0001) %MON obc_N_vVel_sd                =   6.4693829583860E-02
(PID.TID 0000.0001) %MON obc_N_vVel_Int               =   1.8763047269621E+08
(PID.TID 0000.0001) %MON obc_S_vVel_max               =   1.8766679377822E+00
(PID.TID 0000.0001) %MON obc_S_vVel_min               =  -2.6178254188100E-01
(PID.TID 0000.0001) %MON obc_S_vVel_mean              =   4.1390867252904E-03
(PID.TID 0000.0001) %MON obc_S_vVel_sd                =   3.5756336765240E-02
(PID.TID 0000.0001) %MON obc_S_vVel_Int               =   1.2600580191554E+08
(PID.TID 0000.0001) %MON obc_N_theta_max              =   1.6390861045164E+01
(PID.TID 0000.0001) %MON obc_N_theta_min              =   1.8895907269856E+00
(PID.TID 0000.0001) %MON obc_N_theta_mean             =   5.1589805018888E+00
(PID.TID 0000.0001) %MON obc_N_theta_sd               =   3.4827339404776E+00
(PID.TID 0000.0001) %MON obc_S_theta_max              =   2.5544941308807E+01
(PID.TID 0000.0001) %MON obc_S_theta_min              =   1.4632956408867E+00
(PID.TID 0000.0001) %MON obc_S_theta_mean             =   5.4595577802114E+00
(PID.TID 0000.0001) %MON obc_S_theta_sd               =   5.3559370357223E+00
(PID.TID 0000.0001) %MON obc_N_salt_max               =   3.5910867647958E+01
(PID.TID 0000.0001) %MON obc_N_salt_min               =   3.3295014070045E+01
(PID.TID 0000.0001) %MON obc_N_salt_mean              =   3.5114564316350E+01
(PID.TID 0000.0001) %MON obc_N_salt_sd                =   3.0984932953669E-01
(PID.TID 0000.0001) %MON obc_S_salt_max               =   3.7318346630621E+01
(PID.TID 0000.0001) %MON obc_S_salt_min               =   3.4844694313817E+01
(PID.TID 0000.0001) %MON obc_S_salt_mean              =   3.5168372938834E+01
(PID.TID 0000.0001) %MON obc_S_salt_sd                =   4.5717110794259E-01
(PID.TID 0000.0001) // =======================================================
(PID.TID 0000.0001) // End OBCS MONITOR field statistics
(PID.TID 0000.0001) // =======================================================
(PID.TID 0000.0001)  EXF_INTERP_READ: opening file: era5/ERA5_u10m_2008
(PID.TID 0000.0001)  EXF_INTERP_READ: opening file: era5/ERA5_v10m_2008
(PID.TID 0000.0001)  EXF_INTERP_UV: fileU="era5/ERA5_u10m_2008", rec=     1 , x-Per,P.Sym=    T    T
(PID.TID 0000.0001)  S.edge (j=-1,0,1) : proc= 2.2 1.1 0.0, yIn=  -90.215115  -90.000000  -89.784885
(PID.TID 0000.0001)  N.edge (j=+0,+1,+2) proc= 0.0 1.1 2.2, yIn=   89.784885   90.000000   90.215115
(PID.TID 0000.0001)  EXF_INTERP_READ: opening file: era5/ERA5_u10m_2008
(PID.TID 0000.0001)  EXF_INTERP_READ: opening file: era5/ERA5_v10m_2008
(PID.TID 0000.0001)  EXF_INTERP_UV: fileU="era5/ERA5_u10m_2008", rec=     2 , x-Per,P.Sym=    T    T
(PID.TID 0000.0001)  S.edge (j=-1,0,1) : proc= 2.2 1.1 0.0, yIn=  -90.215115  -90.000000  -89.784885
(PID.TID 0000.0001)  N.edge (j=+0,+1,+2) proc= 0.0 1.1 2.2, yIn=   89.784885   90.000000   90.215115
(PID.TID 0000.0001)  EXF_INTERP_READ: opening file: era5/ERA5_tmp2m_degC_2008
(PID.TID 0000.0001)  EXF_INTERP: file="era5/ERA5_tmp2m_degC_2008", rec=     1 , x-Per,P.Sym=    T    T
(PID.TID 0000.0001)  S.edge (j=-1,0,1) : proc= 2.2 1.1 0.0, yIn=  -90.215115  -90.000000  -89.784885
(PID.TID 0000.0001)  N.edge (j=+0,+1,+2) proc= 0.0 1.1 2.2, yIn=   89.784885   90.000000   90.215115
(PID.TID 0000.0001)  EXF_INTERP_READ: opening file: era5/ERA5_tmp2m_degC_2008
(PID.TID 0000.0001)  EXF_INTERP: file="era5/ERA5_tmp2m_degC_2008", rec=     2 , x-Per,P.Sym=    T    T
(PID.TID 0000.0001)  S.edge (j=-1,0,1) : proc= 2.2 1.1 0.0, yIn=  -90.215115  -90.000000  -89.784885
(PID.TID 0000.0001)  N.edge (j=+0,+1,+2) proc= 0.0 1.1 2.2, yIn=   89.784885   90.000000   90.215115
(PID.TID 0000.0001)  EXF_INTERP_READ: opening file: era5/ERA5_spfh2m_2008
(PID.TID 0000.0001)  EXF_INTERP: file="era5/ERA5_spfh2m_2008", rec=     1 , x-Per,P.Sym=    T    T
(PID.TID 0000.0001)  S.edge (j=-1,0,1) : proc= 2.2 1.1 0.0, yIn=  -90.215115  -90.000000  -89.784885
(PID.TID 0000.0001)  N.edge (j=+0,+1,+2) proc= 0.0 1.1 2.2, yIn=   89.784885   90.000000   90.215115
(PID.TID 0000.0001)  EXF_INTERP_READ: opening file: era5/ERA5_spfh2m_2008
(PID.TID 0000.0001)  EXF_INTERP: file="era5/ERA5_spfh2m_2008", rec=     2 , x-Per,P.Sym=    T    T
(PID.TID 0000.0001)  S.edge (j=-1,0,1) : proc= 2.2 1.1 0.0, yIn=  -90.215115  -90.000000  -89.784885
(PID.TID 0000.0001)  N.edge (j=+0,+1,+2) proc= 0.0 1.1 2.2, yIn=   89.784885   90.000000   90.215115
(PID.TID 0000.0001)  EXF_INTERP_READ: opening file: era5/ERA5_rain_2007
(PID.TID 0000.0001)  EXF_INTERP: file="era5/ERA5_rain_2007", rec=  8760 , x-Per,P.Sym=    T    T
(PID.TID 0000.0001)  S.edge (j=-1,0,1) : proc= 2.2 1.1 0.0, yIn=  -90.215115  -90.000000  -89.784885
(PID.TID 0000.0001)  N.edge (j=+0,+1,+2) proc= 0.0 1.1 2.2, yIn=   89.784885   90.000000   90.215115
(PID.TID 0000.0001)  EXF_INTERP_READ: opening file: era5/ERA5_rain_2008
(PID.TID 0000.0001)  EXF_INTERP: file="era5/ERA5_rain_2008", rec=     1 , x-Per,P.Sym=    T    T
(PID.TID 0000.0001)  S.edge (j=-1,0,1) : proc= 2.2 1.1 0.0, yIn=  -90.215115  -90.000000  -89.784885
(PID.TID 0000.0001)  N.edge (j=+0,+1,+2) proc= 0.0 1.1 2.2, yIn=   89.784885   90.000000   90.215115
(PID.TID 0000.0001)  EXF_INTERP_READ: opening file: era5/ERA5_dsw_2007
(PID.TID 0000.0001)  EXF_INTERP: file="era5/ERA5_dsw_2007", rec=  8760 , x-Per,P.Sym=    T    T
(PID.TID 0000.0001)  S.edge (j=-1,0,1) : proc= 2.2 1.1 0.0, yIn=  -90.215115  -90.000000  -89.784885
(PID.TID 0000.0001)  N.edge (j=+0,+1,+2) proc= 0.0 1.1 2.2, yIn=   89.784885   90.000000   90.215115
(PID.TID 0000.0001)  EXF_INTERP_READ: opening file: era5/ERA5_dsw_2008
(PID.TID 0000.0001)  EXF_INTERP: file="era5/ERA5_dsw_2008", rec=     1 , x-Per,P.Sym=    T    T
(PID.TID 0000.0001)  S.edge (j=-1,0,1) : proc= 2.2 1.1 0.0, yIn=  -90.215115  -90.000000  -89.784885
(PID.TID 0000.0001)  N.edge (j=+0,+1,+2) proc= 0.0 1.1 2.2, yIn=   89.784885   90.000000   90.215115
(PID.TID 0000.0001)  EXF_INTERP_READ: opening file: era5/ERA5_dlw_2007
(PID.TID 0000.0001)  EXF_INTERP: file="era5/ERA5_dlw_2007", rec=  8760 , x-Per,P.Sym=    T    T
(PID.TID 0000.0001)  S.edge (j=-1,0,1) : proc= 2.2 1.1 0.0, yIn=  -90.215115  -90.000000  -89.784885
(PID.TID 0000.0001)  N.edge (j=+0,+1,+2) proc= 0.0 1.1 2.2, yIn=   89.784885   90.000000   90.215115
(PID.TID 0000.0001)  EXF_INTERP_READ: opening file: era5/ERA5_dlw_2008
(PID.TID 0000.0001)  EXF_INTERP: file="era5/ERA5_dlw_2008", rec=     1 , x-Per,P.Sym=    T    T
(PID.TID 0000.0001)  S.edge (j=-1,0,1) : proc= 2.2 1.1 0.0, yIn=  -90.215115  -90.000000  -89.784885
(PID.TID 0000.0001)  N.edge (j=+0,+1,+2) proc= 0.0 1.1 2.2, yIn=   89.784885   90.000000   90.215115
(PID.TID 0000.0001)  EXF_INTERP_READ: opening file: era5/ERA5_pres_2008
(PID.TID 0000.0001)  EXF_INTERP: file="era5/ERA5_pres_2008", rec=     1 , x-Per,P.Sym=    T    T
(PID.TID 0000.0001)  S.edge (j=-1,0,1) : proc= 2.2 1.1 0.0, yIn=  -90.215115  -90.000000  -89.784885
(PID.TID 0000.0001)  N.edge (j=+0,+1,+2) proc= 0.0 1.1 2.2, yIn=   89.784885   90.000000   90.215115
(PID.TID 0000.0001)  EXF_INTERP_READ: opening file: era5/ERA5_pres_2008
(PID.TID 0000.0001)  EXF_INTERP: file="era5/ERA5_pres_2008", rec=     2 , x-Per,P.Sym=    T    T
(PID.TID 0000.0001)  S.edge (j=-1,0,1) : proc= 2.2 1.1 0.0, yIn=  -90.215115  -90.000000  -89.784885
(PID.TID 0000.0001)  N.edge (j=+0,+1,+2) proc= 0.0 1.1 2.2, yIn=   89.784885   90.000000   90.215115
(PID.TID 0000.0001)  EXF_INTERP_READ: opening file: tide_IAU_EARTH_2008
(PID.TID 0000.0001)  EXF_INTERP: file="tide_IAU_EARTH_2008", rec=     1 , x-Per,P.Sym=    T    T
(PID.TID 0000.0001)  S.edge (j=-1,0,1) : proc= 0.2 0.2 0.1, yIn=  -92.000000  -91.000000  -90.000000
(PID.TID 0000.0001)  N.edge (j=+0,+1,+2) proc= 0.1 0.2 0.2, yIn=   90.000000   91.000000   92.000000
(PID.TID 0000.0001)  EXF_INTERP_READ: opening file: tide_IAU_EARTH_2008
(PID.TID 0000.0001)  EXF_INTERP: file="tide_IAU_EARTH_2008", rec=     2 , x-Per,P.Sym=    T    T
(PID.TID 0000.0001)  S.edge (j=-1,0,1) : proc= 0.2 0.2 0.1, yIn=  -92.000000  -91.000000  -90.000000
(PID.TID 0000.0001)  N.edge (j=+0,+1,+2) proc= 0.1 0.2 0.2, yIn=   90.000000   91.000000   92.000000
(PID.TID 0000.0001)  EXF_INTERP_READ: opening file: runoff1p2472-360x180x12.bin
(PID.TID 0000.0001)  EXF_INTERP: file="runoff1p2472-360x180x12.bin", rec=    12 , x-Per,P.Sym=    T    T
(PID.TID 0000.0001)  S.edge (j=-1,0,1) : proc= 2.2 1.1 0.0, yIn=  -90.500000  -90.000000  -89.500000
(PID.TID 0000.0001)  N.edge (j=+0,+1,+2) proc= 0.0 1.1 2.2, yIn=   89.500000   90.000000   90.500000
(PID.TID 0000.0001)  EXF_INTERP_READ: opening file: runoff1p2472-360x180x12.bin
(PID.TID 0000.0001)  EXF_INTERP: file="runoff1p2472-360x180x12.bin", rec=     1 , x-Per,P.Sym=    T    T
(PID.TID 0000.0001)  S.edge (j=-1,0,1) : proc= 2.2 1.1 0.0, yIn=  -90.500000  -90.000000  -89.500000
(PID.TID 0000.0001)  N.edge (j=+0,+1,+2) proc= 0.0 1.1 2.2, yIn=   89.500000   90.000000   90.500000
(PID.TID 0000.0001) // =======================================================
(PID.TID 0000.0001) // Begin MONITOR EXF statistics
(PID.TID 0000.0001) // =======================================================
(PID.TID 0000.0001) %MON exf_tsnumber                 =                     0
(PID.TID 0000.0001) %MON exf_time_sec                 =   0.0000000000000E+00
(PID.TID 0000.0001) %MON exf_ustress_max              =   8.4425643696727E-01
(PID.TID 0000.0001) %MON exf_ustress_min              =  -4.3388225620106E-01
(PID.TID 0000.0001) %MON exf_ustress_mean             =   6.3244400400784E-02
(PID.TID 0000.0001) %MON exf_ustress_sd               =   1.5772656995174E-01
(PID.TID 0000.0001) %MON exf_ustress_del2             =   4.4515974964162E-07
(PID.TID 0000.0001) %MON exf_vstress_max              =   4.3288201359973E-01
(PID.TID 0000.0001) %MON exf_vstress_min              =  -5.7660870278438E-01
(PID.TID 0000.0001) %MON exf_vstress_mean             =   1.0765903587045E-02
(PID.TID 0000.0001) %MON exf_vstress_sd               =   1.0393286972532E-01
(PID.TID 0000.0001) %MON exf_vstress_del2             =   3.5452575835374E-07
(PID.TID 0000.0001) %MON exf_hflux_max                =   1.1426327298952E+03
(PID.TID 0000.0001) %MON exf_hflux_min                =  -2.5286207687554E+02
(PID.TID 0000.0001) %MON exf_hflux_mean               =   2.4640048459848E+02
(PID.TID 0000.0001) %MON exf_hflux_sd                 =   1.4494882583802E+02
(PID.TID 0000.0001) %MON exf_hflux_del2               =   6.4415571152730E-02
(PID.TID 0000.0001) %MON exf_sflux_max                =   2.6342196185133E-07
(PID.TID 0000.0001) %MON exf_sflux_min                =  -7.7122101460599E-07
(PID.TID 0000.0001) %MON exf_sflux_mean               =   1.0894842328490E-08
(PID.TID 0000.0001) %MON exf_sflux_sd                 =   9.8849487246137E-08
(PID.TID 0000.0001) %MON exf_sflux_del2               =   2.2365064273567E-11
(PID.TID 0000.0001) %MON exf_uwind_max                =   1.9606746784317E+01
(PID.TID 0000.0001) %MON exf_uwind_min                =  -1.5209099884720E+01
(PID.TID 0000.0001) %MON exf_uwind_mean               =   2.4660403052335E+00
(PID.TID 0000.0001) %MON exf_uwind_sd                 =   6.7030914982012E+00
(PID.TID 0000.0001) %MON exf_uwind_del2               =   1.5867906681655E-03
(PID.TID 0000.0001) %MON exf_vwind_max                =   1.4862500135514E+01
(PID.TID 0000.0001) %MON exf_vwind_min                =  -1.2856596770825E+01
(PID.TID 0000.0001) %MON exf_vwind_mean               =   8.4480849592730E-01
(PID.TID 0000.0001) %MON exf_vwind_sd                 =   5.2438507570531E+00
(PID.TID 0000.0001) %MON exf_vwind_del2               =   1.1881531983877E-03
(PID.TID 0000.0001) %MON exf_wspeed_max               =   2.0676576095759E+01
(PID.TID 0000.0001) %MON exf_wspeed_min               =   2.9026229934707E-03
(PID.TID 0000.0001) %MON exf_wspeed_mean              =   7.7680440694918E+00
(PID.TID 0000.0001) %MON exf_wspeed_sd                =   4.3453370308600E+00
(PID.TID 0000.0001) %MON exf_wspeed_del2              =   1.9820889817514E-03
(PID.TID 0000.0001) %MON exf_atemp_max                =   2.9817782771819E+02
(PID.TID 0000.0001) %MON exf_atemp_min                =   2.7455176814615E+02
(PID.TID 0000.0001) %MON exf_atemp_mean               =   2.9070214676457E+02
(PID.TID 0000.0001) %MON exf_atemp_sd                 =   3.9454297363030E+00
(PID.TID 0000.0001) %MON exf_atemp_del2               =   3.8874196207175E-03
(PID.TID 0000.0001) %MON exf_aqh_max                  =   1.6822470320966E-02
(PID.TID 0000.0001) %MON exf_aqh_min                  =   2.7400640917566E-03
(PID.TID 0000.0001) %MON exf_aqh_mean                 =   9.4287725023261E-03
(PID.TID 0000.0001) %MON exf_aqh_sd                   =   2.8741638324520E-03
(PID.TID 0000.0001) %MON exf_aqh_del2                 =   2.1288927552546E-06
(PID.TID 0000.0001) %MON exf_lwflux_max               =   1.5206773103703E+02
(PID.TID 0000.0001) %MON exf_lwflux_min               =   1.6673558521715E+01
(PID.TID 0000.0001) %MON exf_lwflux_mean              =   7.1263406557529E+01
(PID.TID 0000.0001) %MON exf_lwflux_sd                =   2.0933693193559E+01
(PID.TID 0000.0001) %MON exf_lwflux_del2              =   1.6276178261873E-02
(PID.TID 0000.0001) %MON exf_evap_max                 =   2.6993687811637E-07
(PID.TID 0000.0001) %MON exf_evap_min                 =  -9.0660328990173E-08
(PID.TID 0000.0001) %MON exf_evap_mean                =   5.9648195996947E-08
(PID.TID 0000.0001) %MON exf_evap_sd                  =   4.2510025900783E-08
(PID.TID 0000.0001) %MON exf_evap_del2                =   1.6455441711032E-11
(PID.TID 0000.0001) %MON exf_precip_max               =   9.4246552018275E-07
(PID.TID 0000.0001) %MON exf_precip_min               =   0.0000000000000E+00
(PID.TID 0000.0001) %MON exf_precip_mean              =   4.7164874096466E-08
(PID.TID 0000.0001) %MON exf_precip_sd                =   9.2958504222981E-08
(PID.TID 0000.0001) %MON exf_precip_del2              =   2.3893013010310E-11
(PID.TID 0000.0001) %MON exf_swflux_max               =   0.0000000000000E+00
(PID.TID 0000.0001) %MON exf_swflux_min               =   0.0000000000000E+00
(PID.TID 0000.0001) %MON exf_swflux_mean              =   0.0000000000000E+00
(PID.TID 0000.0001) %MON exf_swflux_sd                =   0.0000000000000E+00
(PID.TID 0000.0001) %MON exf_swflux_del2              =   0.0000000000000E+00
(PID.TID 0000.0001) %MON exf_swdown_max               =   0.0000000000000E+00
(PID.TID 0000.0001) %MON exf_swdown_min               =   0.0000000000000E+00
(PID.TID 0000.0001) %MON exf_swdown_mean              =   0.0000000000000E+00
(PID.TID 0000.0001) %MON exf_swdown_sd                =   0.0000000000000E+00
(PID.TID 0000.0001) %MON exf_swdown_del2              =   0.0000000000000E+00
(PID.TID 0000.0001) %MON exf_lwdown_max               =   3.9820521988866E+02
(PID.TID 0000.0001) %MON exf_lwdown_min               =   2.2735755022082E+02
(PID.TID 0000.0001) %MON exf_lwdown_mean              =   3.4365975791191E+02
(PID.TID 0000.0001) %MON exf_lwdown_sd                =   2.5519934066686E+01
(PID.TID 0000.0001) %MON exf_lwdown_del2              =   7.5208833129923E-02
(PID.TID 0000.0001) %MON exf_apressure_max            =   1.0278540583865E+05
(PID.TID 0000.0001) %MON exf_apressure_min            =   9.9972821381640E+04
(PID.TID 0000.0001) %MON exf_apressure_mean           =   1.0215907879916E+05
(PID.TID 0000.0001) %MON exf_apressure_sd             =   5.0098247038664E+02
(PID.TID 0000.0001) %MON exf_apressure_del2           =   2.2355565104995E+01
(PID.TID 0000.0001) %MON exf_runoff_max               =   4.4374798712073E-08
(PID.TID 0000.0001) %MON exf_runoff_min               =   0.0000000000000E+00
(PID.TID 0000.0001) %MON exf_runoff_mean              =   1.5884795719908E-09
(PID.TID 0000.0001) %MON exf_runoff_sd                =   5.3901959599983E-09
(PID.TID 0000.0001) %MON exf_runoff_del2              =   1.2741189756369E-12
(PID.TID 0000.0001) // =======================================================
(PID.TID 0000.0001) // End MONITOR EXF statistics
(PID.TID 0000.0001) // =======================================================
(PID.TID 0000.0001) SOLVE_FOR_PRESSURE: putPmEinXvector =    F
 cg2d: Sum(rhs),rhsMax =   5.26806012293017E+01  2.94674498192282E-01
(PID.TID 0000.0001)      cg2d_init_res =   1.55204891628841E+01
(PID.TID 0000.0001)      cg2d_iters(min,last) =      -1     326
(PID.TID 0000.0001)      cg2d_last_res =   6.96398586926279E-12
(PID.TID 0000.0001) // =======================================================
(PID.TID 0000.0001) // Begin MONITOR dynamic field statistics
(PID.TID 0000.0001) // =======================================================
(PID.TID 0000.0001) %MON time_tsnumber                =                     1
(PID.TID 0000.0001) %MON time_secondsf                =   2.4000000000000E+02
(PID.TID 0000.0001) %MON dynstat_eta_max              =   9.9431804945954E-01
(PID.TID 0000.0001) %MON dynstat_eta_min              =  -1.3586542004854E+00
(PID.TID 0000.0001) %MON dynstat_eta_mean             =  -1.7915145317381E-03
(PID.TID 0000.0001) %MON dynstat_eta_sd               =   6.5889254844046E-02
(PID.TID 0000.0001) %MON dynstat_eta_del2             =   7.8015241007983E-06
(PID.TID 0000.0001) %MON dynstat_uvel_max             =   1.2718059778087E+00
(PID.TID 0000.0001) %MON dynstat_uvel_min             =  -6.9993271554787E-01
(PID.TID 0000.0001) %MON dynstat_uvel_mean            =   3.8469443983440E-03
(PID.TID 0000.0001) %MON dynstat_uvel_sd              =   5.2155499436374E-02
(PID.TID 0000.0001) %MON dynstat_uvel_del2            =   4.4023855733382E-07
(PID.TID 0000.0001) %MON dynstat_vvel_max             =   1.8944082266793E+00
(PID.TID 0000.0001) %MON dynstat_vvel_min             =  -8.8816891632602E-01
(PID.TID 0000.0001) %MON dynstat_vvel_mean            =  -6.8591316745861E-04
(PID.TID 0000.0001) %MON dynstat_vvel_sd              =   4.8186563466782E-02
(PID.TID 0000.0001) %MON dynstat_vvel_del2            =   4.1705000071216E-07
(PID.TID 0000.0001) %MON dynstat_wvel_max             =   3.6299474332220E-02
(PID.TID 0000.0001) %MON dynstat_wvel_min             =  -3.3452207134387E-02
(PID.TID 0000.0001) %MON dynstat_wvel_mean            =  -3.0884693882597E-06
(PID.TID 0000.0001) %MON dynstat_wvel_sd              =   5.9799560413067E-04
(PID.TID 0000.0001) %MON dynstat_wvel_del2            =   9.0648837520996E-08
(PID.TID 0000.0001) %MON dynstat_theta_max            =   2.6141612842267E+01
(PID.TID 0000.0001) %MON dynstat_theta_min            =   1.4688636747896E+00
(PID.TID 0000.0001) %MON dynstat_theta_mean           =   5.5098718696079E+00
(PID.TID 0000.0001) %MON dynstat_theta_sd             =   4.7735065373212E+00
(PID.TID 0000.0001) %MON dynstat_theta_del2           =   4.0094842843121E-06
(PID.TID 0000.0001) %MON dynstat_salt_max             =   3.9184249639887E+01
(PID.TID 0000.0001) %MON dynstat_salt_min             =   3.3090165744390E+01
(PID.TID 0000.0001) %MON dynstat_salt_mean            =   3.5173372957542E+01
(PID.TID 0000.0001) %MON dynstat_salt_sd              =   3.7891595224523E-01
(PID.TID 0000.0001) %MON dynstat_salt_del2            =   4.9539394472672E-07
(PID.TID 0000.0001) %MON dynstat_sst_max              =   2.6140556846599E+01
(PID.TID 0000.0001) %MON dynstat_sst_min              =   4.0769278158068E+00
(PID.TID 0000.0001) %MON dynstat_sst_mean             =   1.9648097651575E+01
(PID.TID 0000.0001) %MON dynstat_sst_sd               =   3.6387891268331E+00
(PID.TID 0000.0001) %MON dynstat_sst_del2             =   1.9150954273800E-05
(PID.TID 0000.0001) %MON dynstat_sss_max              =   3.7335281193548E+01
(PID.TID 0000.0001) %MON dynstat_sss_min              =   3.3090165744390E+01
(PID.TID 0000.0001) %MON dynstat_sss_mean             =   3.5867991042806E+01
(PID.TID 0000.0001) %MON dynstat_sss_sd               =   4.8718475569283E-01
(PID.TID 0000.0001) %MON dynstat_sss_del2             =   5.0257359569943E-06
(PID.TID 0000.0001) %MON forcing_qnet_max             =   1.1600975946332E+03
(PID.TID 0000.0001) %MON forcing_qnet_min             =  -2.5825645303805E+02
(PID.TID 0000.0001) %MON forcing_qnet_mean            =   2.4794908928919E+02
(PID.TID 0000.0001) %MON forcing_qnet_sd              =   1.4819404726556E+02
(PID.TID 0000.0001) %MON forcing_qnet_del2            =   1.7133091436166E-03
(PID.TID 0000.0001) %MON forcing_qsw_max              =   0.0000000000000E+00
(PID.TID 0000.0001) %MON forcing_qsw_min              =   0.0000000000000E+00
(PID.TID 0000.0001) %MON forcing_qsw_mean             =   0.0000000000000E+00
(PID.TID 0000.0001) %MON forcing_qsw_sd               =   0.0000000000000E+00
(PID.TID 0000.0001) %MON forcing_qsw_del2             =   0.0000000000000E+00
(PID.TID 0000.0001) %MON forcing_empmr_max            =   2.6342196185133E-04
(PID.TID 0000.0001) %MON forcing_empmr_min            =  -7.7122101460599E-04
(PID.TID 0000.0001) %MON forcing_empmr_mean           =   1.0894842328490E-05
(PID.TID 0000.0001) %MON forcing_empmr_sd             =   9.8849487246137E-05
(PID.TID 0000.0001) %MON forcing_empmr_del2           =   2.4615065237330E-09
(PID.TID 0000.0001) %MON forcing_fu_max               =   8.4383770394575E-01
(PID.TID 0000.0001) %MON forcing_fu_min               =  -4.3380412111707E-01
(PID.TID 0000.0001) %MON forcing_fu_mean              =   6.3300579384205E-02
(PID.TID 0000.0001) %MON forcing_fu_sd                =   1.5778483199398E-01
(PID.TID 0000.0001) %MON forcing_fu_del2              =   4.1494870777306E-07
(PID.TID 0000.0001) %MON forcing_fv_max               =   4.3246030470736E-01
(PID.TID 0000.0001) %MON forcing_fv_min               =  -5.7777562355808E-01
(PID.TID 0000.0001) %MON forcing_fv_mean              =   1.0744983934582E-02
(PID.TID 0000.0001) %MON forcing_fv_sd                =   1.0406008770927E-01
(PID.TID 0000.0001) %MON forcing_fv_del2              =   3.3393945860233E-07
(PID.TID 0000.0001) %MON trAdv_CFL_u_max              =   7.7151467610522E-02
(PID.TID 0000.0001) %MON trAdv_CFL_v_max              =   1.1969517004292E-01
(PID.TID 0000.0001) %MON trAdv_CFL_w_max              =   6.5349631642177E-01
(PID.TID 0000.0001) %MON advcfl_uvel_max              =   7.7151466560035E-02
(PID.TID 0000.0001) %MON advcfl_vvel_max              =   1.1972999671543E-01
(PID.TID 0000.0001) %MON advcfl_wvel_max              =   6.5349631642177E-01
(PID.TID 0000.0001) %MON advcfl_W_hf_max              =   6.5349631642177E-01
(PID.TID 0000.0001) %MON pe_b_mean                    =  -3.7863604244617E-05
(PID.TID 0000.0001) %MON ke_max                       =   1.6048737391693E+00
(PID.TID 0000.0001) %MON ke_mean                      =   2.5099736164917E-03
(PID.TID 0000.0001) %MON ke_vol                       =   4.5818637279720E+16
(PID.TID 0000.0001) %MON vort_r_min                   =  -3.7659342116615E-04
(PID.TID 0000.0001) %MON vort_r_max                   =   5.4468094986656E-04
(PID.TID 0000.0001) %MON vort_a_mean                  =   8.2147630795905E-05
(PID.TID 0000.0001) %MON vort_a_sd                    =   1.0118743779354E-05
(PID.TID 0000.0001) %MON vort_p_mean                  =   8.4848852358474E-05
(PID.TID 0000.0001) %MON vort_p_sd                    =   3.4984655148508E-05
(PID.TID 0000.0001) %MON surfExpan_theta_mean         =   4.0462080829488E-05
(PID.TID 0000.0001) %MON surfExpan_salt_mean          =  -2.3865564759623E-04
(PID.TID 0000.0001) // =======================================================
(PID.TID 0000.0001) // End MONITOR dynamic field statistics
(PID.TID 0000.0001) // =======================================================
(PID.TID 0000.0001) // =======================================================
(PID.TID 0000.0001) // Begin OBCS MONITOR field statistics
(PID.TID 0000.0001) // =======================================================
(PID.TID 0000.0001) %MON obc_N_vVel_max               =   6.9574427194414E-01
(PID.TID 0000.0001) %MON obc_N_vVel_min               =  -3.2190138536929E-01
(PID.TID 0000.0001) %MON obc_N_vVel_mean              =   1.3214372707035E-02
(PID.TID 0000.0001) %MON obc_N_vVel_sd                =   6.4696568943744E-02
(PID.TID 0000.0001) %MON obc_N_vVel_Int               =   1.8916486142242E+08
(PID.TID 0000.0001) %MON obc_S_vVel_max               =   1.8944082266793E+00
(PID.TID 0000.0001) %MON obc_S_vVel_min               =  -2.6193006856167E-01
(PID.TID 0000.0001) %MON obc_S_vVel_mean              =   3.4426239329257E-03
(PID.TID 0000.0001) %MON obc_S_vVel_sd                =   3.5781323435683E-02
(PID.TID 0000.0001) %MON obc_S_vVel_Int               =   1.0480345500166E+08
(PID.TID 0000.0001) %MON obc_N_theta_max              =   1.6390772942977E+01
(PID.TID 0000.0001) %MON obc_N_theta_min              =   1.8895907760510E+00
(PID.TID 0000.0001) %MON obc_N_theta_mean             =   5.1589731177388E+00
(PID.TID 0000.0001) %MON obc_N_theta_sd               =   3.4827246474693E+00
(PID.TID 0000.0001) %MON obc_S_theta_max              =   2.5544838560027E+01
(PID.TID 0000.0001) %MON obc_S_theta_min              =   1.4632960371739E+00
(PID.TID 0000.0001) %MON obc_S_theta_mean             =   5.4595569751868E+00
(PID.TID 0000.0001) %MON obc_S_theta_sd               =   5.3559331643598E+00
(PID.TID 0000.0001) %MON obc_N_salt_max               =   3.5910867239595E+01
(PID.TID 0000.0001) %MON obc_N_salt_min               =   3.3295019572678E+01
(PID.TID 0000.0001) %MON obc_N_salt_mean              =   3.5114564020364E+01
(PID.TID 0000.0001) %MON obc_N_salt_sd                =   3.0984921004960E-01
(PID.TID 0000.0001) %MON obc_S_salt_max               =   3.7318339746237E+01
(PID.TID 0000.0001) %MON obc_S_salt_min               =   3.4844694366037E+01
(PID.TID 0000.0001) %MON obc_S_salt_mean              =   3.5168372866917E+01
(PID.TID 0000.0001) %MON obc_S_salt_sd                =   4.5717075682044E-01
(PID.TID 0000.0001) // =======================================================
(PID.TID 0000.0001) // End OBCS MONITOR field statistics
(PID.TID 0000.0001) // =======================================================
(PID.TID 0000.0001) // =======================================================
(PID.TID 0000.0001) // Begin MONITOR EXF statistics
(PID.TID 0000.0001) // =======================================================
(PID.TID 0000.0001) %MON exf_tsnumber                 =                     1
(PID.TID 0000.0001) %MON exf_time_sec                 =   2.4000000000000E+02
(PID.TID 0000.0001) %MON exf_ustress_max              =   8.3827940941094E-01
(PID.TID 0000.0001) %MON exf_ustress_min              =  -4.2951130502588E-01
(PID.TID 0000.0001) %MON exf_ustress_mean             =   6.3103170756613E-02
(PID.TID 0000.0001) %MON exf_ustress_sd               =   1.5694008732549E-01
(PID.TID 0000.0001) %MON exf_ustress_del2             =   4.3615646367509E-07
(PID.TID 0000.0001) %MON exf_vstress_max              =   4.1921739911920E-01
(PID.TID 0000.0001) %MON exf_vstress_min              =  -5.7314179525555E-01
(PID.TID 0000.0001) %MON exf_vstress_mean             =   1.0709358920756E-02
(PID.TID 0000.0001) %MON exf_vstress_sd               =   1.0322192665842E-01
(PID.TID 0000.0001) %MON exf_vstress_del2             =   3.2691144135453E-07
(PID.TID 0000.0001) %MON exf_hflux_max                =   1.1414720575247E+03
(PID.TID 0000.0001) %MON exf_hflux_min                =  -2.5658339911251E+02
(PID.TID 0000.0001) %MON exf_hflux_mean               =   2.4534453992630E+02
(PID.TID 0000.0001) %MON exf_hflux_sd                 =   1.4399241347806E+02
(PID.TID 0000.0001) %MON exf_hflux_del2               =   6.4094162986773E-02
(PID.TID 0000.0001) %MON exf_sflux_max                =   2.6217821502985E-07
(PID.TID 0000.0001) %MON exf_sflux_min                =  -8.9634422069129E-07
(PID.TID 0000.0001) %MON exf_sflux_mean               =   1.1723751777707E-08
(PID.TID 0000.0001) %MON exf_sflux_sd                 =   9.9263046224897E-08
(PID.TID 0000.0001) %MON exf_sflux_del2               =   2.2713104454958E-11
(PID.TID 0000.0001) %MON exf_uwind_max                =   1.9553615407396E+01
(PID.TID 0000.0001) %MON exf_uwind_min                =  -1.5156201474937E+01
(PID.TID 0000.0001) %MON exf_uwind_mean               =   2.4665495309360E+00
(PID.TID 0000.0001) %MON exf_uwind_sd                 =   6.6942562092054E+00
(PID.TID 0000.0001) %MON exf_uwind_del2               =   1.5855761230152E-03
(PID.TID 0000.0001) %MON exf_vwind_max                =   1.4720239799711E+01
(PID.TID 0000.0001) %MON exf_vwind_min                =  -1.2837167133060E+01
(PID.TID 0000.0001) %MON exf_vwind_mean               =   8.4647511102138E-01
(PID.TID 0000.0001) %MON exf_vwind_sd                 =   5.2291573257235E+00
(PID.TID 0000.0001) %MON exf_vwind_del2               =   1.1844629398298E-03
(PID.TID 0000.0001) %MON exf_wspeed_max               =   2.0604017506982E+01
(PID.TID 0000.0001) %MON exf_wspeed_min               =   1.3970837016550E-02
(PID.TID 0000.0001) %MON exf_wspeed_mean              =   7.7556148837361E+00
(PID.TID 0000.0001) %MON exf_wspeed_sd                =   4.3368164601424E+00
(PID.TID 0000.0001) %MON exf_wspeed_del2              =   1.9789192499593E-03
(PID.TID 0000.0001) %MON exf_atemp_max                =   2.9817563038952E+02
(PID.TID 0000.0001) %MON exf_atemp_min                =   2.7452616679930E+02
(PID.TID 0000.0001) %MON exf_atemp_mean               =   2.9069902555867E+02
(PID.TID 0000.0001) %MON exf_atemp_sd                 =   3.9447513444722E+00
(PID.TID 0000.0001) %MON exf_atemp_del2               =   3.8867434016797E-03
(PID.TID 0000.0001) %MON exf_aqh_max                  =   1.6815484070636E-02
(PID.TID 0000.0001) %MON exf_aqh_min                  =   2.7377693823923E-03
(PID.TID 0000.0001) %MON exf_aqh_mean                 =   9.4275843494796E-03
(PID.TID 0000.0001) %MON exf_aqh_sd                   =   2.8734847467604E-03
(PID.TID 0000.0001) %MON exf_aqh_del2                 =   2.1284603335259E-06
(PID.TID 0000.0001) %MON exf_lwflux_max               =   1.5159277173140E+02
(PID.TID 0000.0001) %MON exf_lwflux_min               =   1.6653089506750E+01
(PID.TID 0000.0001) %MON exf_lwflux_mean              =   7.0480757047359E+01
(PID.TID 0000.0001) %MON exf_lwflux_sd                =   2.0882628230691E+01
(PID.TID 0000.0001) %MON exf_lwflux_del2              =   1.6101596736710E-02
(PID.TID 0000.0001) %MON exf_evap_max                 =   2.6944465548995E-07
(PID.TID 0000.0001) %MON exf_evap_min                 =  -9.1098699224520E-08
(PID.TID 0000.0001) %MON exf_evap_mean                =   5.9553239527776E-08
(PID.TID 0000.0001) %MON exf_evap_sd                  =   4.2383478326004E-08
(PID.TID 0000.0001) %MON exf_evap_del2                =   1.6425201380145E-11
(PID.TID 0000.0001) %MON exf_precip_max               =   1.0681275895404E-06
(PID.TID 0000.0001) %MON exf_precip_min               =   0.0000000000000E+00
(PID.TID 0000.0001) %MON exf_precip_mean              =   4.6241008178078E-08
(PID.TID 0000.0001) %MON exf_precip_sd                =   9.5180220743482E-08
(PID.TID 0000.0001) %MON exf_precip_del2              =   2.4474140889587E-11
(PID.TID 0000.0001) %MON exf_swflux_max               =   0.0000000000000E+00
(PID.TID 0000.0001) %MON exf_swflux_min               =   0.0000000000000E+00
(PID.TID 0000.0001) %MON exf_swflux_mean              =   0.0000000000000E+00
(PID.TID 0000.0001) %MON exf_swflux_sd                =   0.0000000000000E+00
(PID.TID 0000.0001) %MON exf_swflux_del2              =   0.0000000000000E+00
(PID.TID 0000.0001) %MON exf_swdown_max               =   0.0000000000000E+00
(PID.TID 0000.0001) %MON exf_swdown_min               =   0.0000000000000E+00
(PID.TID 0000.0001) %MON exf_swdown_mean              =   0.0000000000000E+00
(PID.TID 0000.0001) %MON exf_swdown_sd                =   0.0000000000000E+00
(PID.TID 0000.0001) %MON exf_swdown_del2              =   0.0000000000000E+00
(PID.TID 0000.0001) %MON exf_lwdown_max               =   3.9865637476020E+02
(PID.TID 0000.0001) %MON exf_lwdown_min               =   2.2781413969617E+02
(PID.TID 0000.0001) %MON exf_lwdown_mean              =   3.4445381178148E+02
(PID.TID 0000.0001) %MON exf_lwdown_sd                =   2.5672715620219E+01
(PID.TID 0000.0001) %MON exf_lwdown_del2              =   7.5392252930860E-02
(PID.TID 0000.0001) %MON exf_apressure_max            =   1.0278691687306E+05
(PID.TID 0000.0001) %MON exf_apressure_min            =   9.9978539079073E+04
(PID.TID 0000.0001) %MON exf_apressure_mean           =   1.0215985610550E+05
(PID.TID 0000.0001) %MON exf_apressure_sd             =   5.0058207884564E+02
(PID.TID 0000.0001) %MON exf_apressure_del2           =   2.2355752403075E+01
(PID.TID 0000.0001) %MON exf_runoff_max               =   4.4374798712073E-08
(PID.TID 0000.0001) %MON exf_runoff_min               =   0.0000000000000E+00
(PID.TID 0000.0001) %MON exf_runoff_mean              =   1.5884795719908E-09
(PID.TID 0000.0001) %MON exf_runoff_sd                =   5.3901959599983E-09
(PID.TID 0000.0001) %MON exf_runoff_del2              =   1.2741189756369E-12
(PID.TID 0000.0001) // =======================================================
(PID.TID 0000.0001) // End MONITOR EXF statistics
(PID.TID 0000.0001) // =======================================================
 cg2d: Sum(rhs),rhsMax =   1.19494929877160E+02  4.70813614637954E-02
(PID.TID 0000.0001)      cg2d_init_res =   1.39151356649236E+01
(PID.TID 0000.0001)      cg2d_iters(min,last) =      -1     323
(PID.TID 0000.0001)      cg2d_last_res =   6.84527384611860E-12
(PID.TID 0000.0001) // =======================================================
(PID.TID 0000.0001) // Begin MONITOR dynamic field statistics
(PID.TID 0000.0001) // =======================================================
(PID.TID 0000.0001) %MON time_tsnumber                =                     2
(PID.TID 0000.0001) %MON time_secondsf                =   4.8000000000000E+02
(PID.TID 0000.0001) %MON dynstat_eta_max              =   8.7300361513471E-01
(PID.TID 0000.0001) %MON dynstat_eta_min              =  -1.5315210618775E+00
(PID.TID 0000.0001) %MON dynstat_eta_mean             =  -4.0636761606451E-03
(PID.TID 0000.0001) %MON dynstat_eta_sd               =   9.7733990417796E-02
(PID.TID 0000.0001) %MON dynstat_eta_del2             =   3.4503544647650E-06
(PID.TID 0000.0001) %MON dynstat_uvel_max             =   1.2822075849177E+00
(PID.TID 0000.0001) %MON dynstat_uvel_min             =  -7.0565323777208E-01
(PID.TID 0000.0001) %MON dynstat_uvel_mean            =   3.7653220629073E-03
(PID.TID 0000.0001) %MON dynstat_uvel_sd              =   5.2263000144262E-02
(PID.TID 0000.0001) %MON dynstat_uvel_del2            =   4.6222309388913E-07
(PID.TID 0000.0001) %MON dynstat_vvel_max             =   1.9227748132589E+00
(PID.TID 0000.0001) %MON dynstat_vvel_min             =  -8.9318075792488E-01
(PID.TID 0000.0001) %MON dynstat_vvel_mean            =  -1.1639085150434E-03
(PID.TID 0000.0001) %MON dynstat_vvel_sd              =   4.8158156780400E-02
(PID.TID 0000.0001) %MON dynstat_vvel_del2            =   4.2801020881515E-07
(PID.TID 0000.0001) %MON dynstat_wvel_max             =   3.7564761140829E-02
(PID.TID 0000.0001) %MON dynstat_wvel_min             =  -3.2825828856868E-02
(PID.TID 0000.0001) %MON dynstat_wvel_mean            =  -4.3165097998949E-06
(PID.TID 0000.0001) %MON dynstat_wvel_sd              =   5.8531725513940E-04
(PID.TID 0000.0001) %MON dynstat_wvel_del2            =   9.0300932465127E-08
(PID.TID 0000.0001) %MON dynstat_theta_max            =   2.6141375868349E+01
(PID.TID 0000.0001) %MON dynstat_theta_min            =   1.4688637571530E+00
(PID.TID 0000.0001) %MON dynstat_theta_mean           =   5.5098630030025E+00
(PID.TID 0000.0001) %MON dynstat_theta_sd             =   4.7734765003637E+00
(PID.TID 0000.0001) %MON dynstat_theta_del2           =   4.0037926764248E-06
(PID.TID 0000.0001) %MON dynstat_salt_max             =   3.9182777431588E+01
(PID.TID 0000.0001) %MON dynstat_salt_min             =   3.3090730117254E+01
(PID.TID 0000.0001) %MON dynstat_salt_mean            =   3.5173371411112E+01
(PID.TID 0000.0001) %MON dynstat_salt_sd              =   3.7891402702231E-01
(PID.TID 0000.0001) %MON dynstat_salt_del2            =   4.9557274125507E-07
(PID.TID 0000.0001) %MON dynstat_sst_max              =   2.6139521153842E+01
(PID.TID 0000.0001) %MON dynstat_sst_min              =   4.0626033590025E+00
(PID.TID 0000.0001) %MON dynstat_sst_mean             =   1.9646304848213E+01
(PID.TID 0000.0001) %MON dynstat_sst_sd               =   3.6387970361394E+00
(PID.TID 0000.0001) %MON dynstat_sst_del2             =   1.9096777174540E-05
(PID.TID 0000.0001) %MON dynstat_sss_max              =   3.7335396141027E+01
(PID.TID 0000.0001) %MON dynstat_sss_min              =   3.3090730117254E+01
(PID.TID 0000.0001) %MON dynstat_sss_mean             =   3.5868031241826E+01
(PID.TID 0000.0001) %MON dynstat_sss_sd               =   4.8718970040531E-01
(PID.TID 0000.0001) %MON dynstat_sss_del2             =   5.0100076185571E-06
(PID.TID 0000.0001) %MON forcing_qnet_max             =   1.1590196905830E+03
(PID.TID 0000.0001) %MON forcing_qnet_min             =  -2.6188087425999E+02
(PID.TID 0000.0001) %MON forcing_qnet_mean            =   2.4696745216657E+02
(PID.TID 0000.0001) %MON forcing_qnet_sd              =   1.4699272182214E+02
(PID.TID 0000.0001) %MON forcing_qnet_del2            =   1.7023517875771E-03
(PID.TID 0000.0001) %MON forcing_qsw_max              =   0.0000000000000E+00
(PID.TID 0000.0001) %MON forcing_qsw_min              =   0.0000000000000E+00
(PID.TID 0000.0001) %MON forcing_qsw_mean             =   0.0000000000000E+00
(PID.TID 0000.0001) %MON forcing_qsw_sd               =   0.0000000000000E+00
(PID.TID 0000.0001) %MON forcing_qsw_del2             =   0.0000000000000E+00
(PID.TID 0000.0001) %MON forcing_empmr_max            =   2.6217821502985E-04
(PID.TID 0000.0001) %MON forcing_empmr_min            =  -8.9634422069129E-04
(PID.TID 0000.0001) %MON forcing_empmr_mean           =   1.1723751777707E-05
(PID.TID 0000.0001) %MON forcing_empmr_sd             =   9.9263046224897E-05
(PID.TID 0000.0001) %MON forcing_empmr_del2           =   2.4830196952334E-09
(PID.TID 0000.0001) %MON forcing_fu_max               =   8.3753240274468E-01
(PID.TID 0000.0001) %MON forcing_fu_min               =  -4.2948400815601E-01
(PID.TID 0000.0001) %MON forcing_fu_mean              =   6.3159629339220E-02
(PID.TID 0000.0001) %MON forcing_fu_sd                =   1.5699859056178E-01
(PID.TID 0000.0001) %MON forcing_fu_del2              =   3.9852707729742E-07
(PID.TID 0000.0001) %MON forcing_fv_max               =   4.1893552205073E-01
(PID.TID 0000.0001) %MON forcing_fv_min               =  -5.7502273170836E-01
(PID.TID 0000.0001) %MON forcing_fv_mean              =   1.0688680142347E-02
(PID.TID 0000.0001) %MON forcing_fv_sd                =   1.0335022527038E-01
(PID.TID 0000.0001) %MON forcing_fv_del2              =   3.0679648038006E-07
(PID.TID 0000.0001) %MON trAdv_CFL_u_max              =   7.7792512363697E-02
(PID.TID 0000.0001) %MON trAdv_CFL_v_max              =   1.2148746768836E-01
(PID.TID 0000.0001) %MON trAdv_CFL_w_max              =   5.1783484014435E-01
(PID.TID 0000.0001) %MON advcfl_uvel_max              =   7.7792511304482E-02
(PID.TID 0000.0001) %MON advcfl_vvel_max              =   1.2152281585028E-01
(PID.TID 0000.0001) %MON advcfl_wvel_max              =   5.1937144204389E-01
(PID.TID 0000.0001) %MON advcfl_W_hf_max              =   5.2091719038330E-01
(PID.TID 0000.0001) %MON pe_b_mean                    =  -8.6383701387692E-05
(PID.TID 0000.0001) %MON ke_max                       =   1.6901615980662E+00
(PID.TID 0000.0001) %MON ke_mean                      =   2.5143145496253E-03
(PID.TID 0000.0001) %MON ke_vol                       =   4.5818637279720E+16
(PID.TID 0000.0001) %MON vort_r_min                   =  -4.3054263259254E-04
(PID.TID 0000.0001) %MON vort_r_max                   =   6.0071483297670E-04
(PID.TID 0000.0001) %MON vort_a_mean                  =   8.2147630071754E-05
(PID.TID 0000.0001) %MON vort_a_sd                    =   1.0121535925183E-05
(PID.TID 0000.0001) %MON vort_p_mean                  =   8.4848851610511E-05
(PID.TID 0000.0001) %MON vort_p_sd                    =   3.4982238225108E-05
(PID.TID 0000.0001) %MON surfExpan_theta_mean         =   2.3425780432689E-05
(PID.TID 0000.0001) %MON surfExpan_salt_mean          =  -3.1007208233405E-04
(PID.TID 0000.0001) // =======================================================
(PID.TID 0000.0001) // End MONITOR dynamic field statistics
(PID.TID 0000.0001) // =======================================================
(PID.TID 0000.0001) // =======================================================
(PID.TID 0000.0001) // Begin OBCS MONITOR field statistics
(PID.TID 0000.0001) // =======================================================
(PID.TID 0000.0001) %MON obc_N_vVel_max               =   6.9568554767849E-01
(PID.TID 0000.0001) %MON obc_N_vVel_min               =  -3.2199381926990E-01
(PID.TID 0000.0001) %MON obc_N_vVel_mean              =   1.3307490691962E-02
(PID.TID 0000.0001) %MON obc_N_vVel_sd                =   6.4696469699490E-02
(PID.TID 0000.0001) %MON obc_N_vVel_Int               =   1.9049785324164E+08
(PID.TID 0000.0001) %MON obc_S_vVel_max               =   1.9227748132589E+00
(PID.TID 0000.0001) %MON obc_S_vVel_min               =  -2.6207127723095E-01
(PID.TID 0000.0001) %MON obc_S_vVel_mean              =   2.7429399846448E-03
(PID.TID 0000.0001) %MON obc_S_vVel_sd                =   3.5810089513638E-02
(PID.TID 0000.0001) %MON obc_S_vVel_Int               =   8.3503046761390E+07
(PID.TID 0000.0001) %MON obc_N_theta_max              =   1.6390684840790E+01
(PID.TID 0000.0001) %MON obc_N_theta_min              =   1.8895908251163E+00
(PID.TID 0000.0001) %MON obc_N_theta_mean             =   5.1589657335888E+00
(PID.TID 0000.0001) %MON obc_N_theta_sd               =   3.4827153546990E+00
(PID.TID 0000.0001) %MON obc_S_theta_max              =   2.5544735811248E+01
(PID.TID 0000.0001) %MON obc_S_theta_min              =   1.4632964334612E+00
(PID.TID 0000.0001) %MON obc_S_theta_mean             =   5.4595561701622E+00
(PID.TID 0000.0001) %MON obc_S_theta_sd               =   5.3559292930331E+00
(PID.TID 0000.0001) %MON obc_N_salt_max               =   3.5910866831232E+01
(PID.TID 0000.0001) %MON obc_N_salt_min               =   3.3295025075312E+01
(PID.TID 0000.0001) %MON obc_N_salt_mean              =   3.5114563724377E+01
(PID.TID 0000.0001) %MON obc_N_salt_sd                =   3.0984909061059E-01
(PID.TID 0000.0001) %MON obc_S_salt_max               =   3.7318332861853E+01
(PID.TID 0000.0001) %MON obc_S_salt_min               =   3.4844694418258E+01
(PID.TID 0000.0001) %MON obc_S_salt_mean              =   3.5168372795001E+01
(PID.TID 0000.0001) %MON obc_S_salt_sd                =   4.5717040571680E-01
(PID.TID 0000.0001) // =======================================================
(PID.TID 0000.0001) // End OBCS MONITOR field statistics
(PID.TID 0000.0001) // =======================================================
(PID.TID 0000.0001) // =======================================================
(PID.TID 0000.0001) // Begin MONITOR EXF statistics
(PID.TID 0000.0001) // =======================================================
(PID.TID 0000.0001) %MON exf_tsnumber                 =                     2
(PID.TID 0000.0001) %MON exf_time_sec                 =   4.8000000000000E+02
(PID.TID 0000.0001) %MON exf_ustress_max              =   8.3767840990408E-01
(PID.TID 0000.0001) %MON exf_ustress_min              =  -4.2588804745542E-01
(PID.TID 0000.0001) %MON exf_ustress_mean             =   6.3015876931959E-02
(PID.TID 0000.0001) %MON exf_ustress_sd               =   1.5632345809827E-01
(PID.TID 0000.0001) %MON exf_ustress_del2             =   4.2179121434476E-07
(PID.TID 0000.0001) %MON exf_vstress_max              =   4.0928995258248E-01
(PID.TID 0000.0001) %MON exf_vstress_min              =  -5.7022702316840E-01
(PID.TID 0000.0001) %MON exf_vstress_mean             =   1.0672344069331E-02
(PID.TID 0000.0001) %MON exf_vstress_sd               =   1.0265989412320E-01
(PID.TID 0000.0001) %MON exf_vstress_del2             =   3.0641368598582E-07
(PID.TID 0000.0001) %MON exf_hflux_max                =   1.1410679312784E+03
(PID.TID 0000.0001) %MON exf_hflux_min                =  -2.6041838756198E+02
(PID.TID 0000.0001) %MON exf_hflux_mean               =   2.4435150639098E+02
(PID.TID 0000.0001) %MON exf_hflux_sd                 =   1.4316314068704E+02
(PID.TID 0000.0001) %MON exf_hflux_del2               =   6.3802688341253E-02
(PID.TID 0000.0001) %MON exf_sflux_max                =   2.6116475166675E-07
(PID.TID 0000.0001) %MON exf_sflux_min                =  -1.0214099097755E-06
(PID.TID 0000.0001) %MON exf_sflux_mean               =   1.2571850465992E-08
(PID.TID 0000.0001) %MON exf_sflux_sd                 =   1.0126696192965E-07
(PID.TID 0000.0001) %MON exf_sflux_del2               =   2.3437253277674E-11
(PID.TID 0000.0001) %MON exf_uwind_max                =   1.9559448812374E+01
(PID.TID 0000.0001) %MON exf_uwind_min                =  -1.5111818686829E+01
(PID.TID 0000.0001) %MON exf_uwind_mean               =   2.4675556421284E+00
(PID.TID 0000.0001) %MON exf_uwind_sd                 =   6.6870781090596E+00
(PID.TID 0000.0001) %MON exf_uwind_del2               =   1.5847931355926E-03
(PID.TID 0000.0001) %MON exf_vwind_max                =   1.4603617058616E+01
(PID.TID 0000.0001) %MON exf_vwind_min                =  -1.2819773610324E+01
(PID.TID 0000.0001) %MON exf_vwind_mean               =   8.4817965814422E-01
(PID.TID 0000.0001) %MON exf_vwind_sd                 =   5.2165361851961E+00
(PID.TID 0000.0001) %MON exf_vwind_del2               =   1.1812565061566E-03
(PID.TID 0000.0001) %MON exf_wspeed_max               =   2.0544619345290E+01
(PID.TID 0000.0001) %MON exf_wspeed_min               =   1.4212554504815E-02
(PID.TID 0000.0001) %MON exf_wspeed_mean              =   7.7450629066781E+00
(PID.TID 0000.0001) %MON exf_wspeed_sd                =   4.3303006315050E+00
(PID.TID 0000.0001) %MON exf_wspeed_del2              =   1.9763870045935E-03
(PID.TID 0000.0001) %MON exf_atemp_max                =   2.9817343306084E+02
(PID.TID 0000.0001) %MON exf_atemp_min                =   2.7450056545246E+02
(PID.TID 0000.0001) %MON exf_atemp_mean               =   2.9069590435276E+02
(PID.TID 0000.0001) %MON exf_atemp_sd                 =   3.9442153070108E+00
(PID.TID 0000.0001) %MON exf_atemp_del2               =   3.8860737442326E-03
(PID.TID 0000.0001) %MON exf_aqh_max                  =   1.6808497820306E-02
(PID.TID 0000.0001) %MON exf_aqh_min                  =   2.7354746730280E-03
(PID.TID 0000.0001) %MON exf_aqh_mean                 =   9.4263961966331E-03
(PID.TID 0000.0001) %MON exf_aqh_sd                   =   2.8729782876331E-03
(PID.TID 0000.0001) %MON exf_aqh_del2                 =   2.1280399903957E-06
(PID.TID 0000.0001) %MON exf_lwflux_max               =   1.5112482511639E+02
(PID.TID 0000.0001) %MON exf_lwflux_min               =   1.5989246109808E+01
(PID.TID 0000.0001) %MON exf_lwflux_mean              =   6.9700621118508E+01
(PID.TID 0000.0001) %MON exf_lwflux_sd                =   2.1124382223948E+01
(PID.TID 0000.0001) %MON exf_lwflux_del2              =   1.5947350177114E-02
(PID.TID 0000.0001) %MON exf_evap_max                 =   2.7064045346800E-07
(PID.TID 0000.0001) %MON exf_evap_min                 =  -9.1568006741036E-08
(PID.TID 0000.0001) %MON exf_evap_mean                =   5.9477472297673E-08
(PID.TID 0000.0001) %MON exf_evap_sd                  =   4.2284518109831E-08
(PID.TID 0000.0001) %MON exf_evap_del2                =   1.6402752807816E-11
(PID.TID 0000.0001) %MON exf_precip_max               =   1.1937896588981E-06
(PID.TID 0000.0001) %MON exf_precip_min               =   0.0000000000000E+00
(PID.TID 0000.0001) %MON exf_precip_mean              =   4.5317142259690E-08
(PID.TID 0000.0001) %MON exf_precip_sd                =   9.8966659187063E-08
(PID.TID 0000.0001) %MON exf_precip_del2              =   2.5389886759034E-11
(PID.TID 0000.0001) %MON exf_swflux_max               =   0.0000000000000E+00
(PID.TID 0000.0001) %MON exf_swflux_min               =   0.0000000000000E+00
(PID.TID 0000.0001) %MON exf_swflux_mean              =   0.0000000000000E+00
(PID.TID 0000.0001) %MON exf_swflux_sd                =   0.0000000000000E+00
(PID.TID 0000.0001) %MON exf_swflux_del2              =   0.0000000000000E+00
(PID.TID 0000.0001) %MON exf_swdown_max               =   0.0000000000000E+00
(PID.TID 0000.0001) %MON exf_swdown_min               =   0.0000000000000E+00
(PID.TID 0000.0001) %MON exf_swdown_mean              =   0.0000000000000E+00
(PID.TID 0000.0001) %MON exf_swdown_sd                =   0.0000000000000E+00
(PID.TID 0000.0001) %MON exf_swdown_del2              =   0.0000000000000E+00
(PID.TID 0000.0001) %MON exf_lwdown_max               =   3.9916211867404E+02
(PID.TID 0000.0001) %MON exf_lwdown_min               =   2.2827072917151E+02
(PID.TID 0000.0001) %MON exf_lwdown_mean              =   3.4524786565106E+02
(PID.TID 0000.0001) %MON exf_lwdown_sd                =   2.6075853681968E+01
(PID.TID 0000.0001) %MON exf_lwdown_del2              =   7.5580071600177E-02
(PID.TID 0000.0001) %MON exf_apressure_max            =   1.0278842790746E+05
(PID.TID 0000.0001) %MON exf_apressure_min            =   9.9983892236314E+04
(PID.TID 0000.0001) %MON exf_apressure_mean           =   1.0216063341184E+05
(PID.TID 0000.0001) %MON exf_apressure_sd             =   5.0022107696962E+02
(PID.TID 0000.0001) %MON exf_apressure_del2           =   2.2355939744295E+01
(PID.TID 0000.0001) %MON exf_runoff_max               =   4.4374798712073E-08
(PID.TID 0000.0001) %MON exf_runoff_min               =   0.0000000000000E+00
(PID.TID 0000.0001) %MON exf_runoff_mean              =   1.5884795719908E-09
(PID.TID 0000.0001) %MON exf_runoff_sd                =   5.3901959599983E-09
(PID.TID 0000.0001) %MON exf_runoff_del2              =   1.2741189756369E-12
(PID.TID 0000.0001) // =======================================================
(PID.TID 0000.0001) // End MONITOR EXF statistics
(PID.TID 0000.0001) // =======================================================
 cg2d: Sum(rhs),rhsMax =   2.00361346372482E+02  3.88144095999565E-02
(PID.TID 0000.0001)      cg2d_init_res =   3.21754851726059E+00
(PID.TID 0000.0001)      cg2d_iters(min,last) =      -1     320
(PID.TID 0000.0001)      cg2d_last_res =   6.61533038112242E-12
(PID.TID 0000.0001) // =======================================================
(PID.TID 0000.0001) // Begin MONITOR dynamic field statistics
(PID.TID 0000.0001) // =======================================================
(PID.TID 0000.0001) %MON time_tsnumber                =                     3
(PID.TID 0000.0001) %MON time_secondsf                =   7.2000000000000E+02
(PID.TID 0000.0001) %MON dynstat_eta_max              =   9.5747661431421E-01
(PID.TID 0000.0001) %MON dynstat_eta_min              =  -1.5344872230148E+00
(PID.TID 0000.0001) %MON dynstat_eta_mean             =  -6.8137085615732E-03
(PID.TID 0000.0001) %MON dynstat_eta_sd               =   1.2653931695441E-01
(PID.TID 0000.0001) %MON dynstat_eta_del2             =   2.9317845445322E-06
(PID.TID 0000.0001) %MON dynstat_uvel_max             =   1.2896873841853E+00
(PID.TID 0000.0001) %MON dynstat_uvel_min             =  -8.9373754119295E-01
(PID.TID 0000.0001) %MON dynstat_uvel_mean            =   3.6488361966665E-03
(PID.TID 0000.0001) %MON dynstat_uvel_sd              =   5.2337504980642E-02
(PID.TID 0000.0001) %MON dynstat_uvel_del2            =   4.6330031724054E-07
(PID.TID 0000.0001) %MON dynstat_vvel_max             =   1.9873820750718E+00
(PID.TID 0000.0001) %MON dynstat_vvel_min             =  -8.9822822447775E-01
(PID.TID 0000.0001) %MON dynstat_vvel_mean            =  -1.6091876000463E-03
(PID.TID 0000.0001) %MON dynstat_vvel_sd              =   4.8200968415156E-02
(PID.TID 0000.0001) %MON dynstat_vvel_del2            =   4.2469001911360E-07
(PID.TID 0000.0001) %MON dynstat_wvel_max             =   3.7202169688897E-02
(PID.TID 0000.0001) %MON dynstat_wvel_min             =  -3.2622598023813E-02
(PID.TID 0000.0001) %MON dynstat_wvel_mean            =  -5.5391214022803E-06
(PID.TID 0000.0001) %MON dynstat_wvel_sd              =   5.8964576767710E-04
(PID.TID 0000.0001) %MON dynstat_wvel_del2            =   8.9135088640726E-08
(PID.TID 0000.0001) %MON dynstat_theta_max            =   2.6141063262706E+01
(PID.TID 0000.0001) %MON dynstat_theta_min            =   1.4688638492136E+00
(PID.TID 0000.0001) %MON dynstat_theta_mean           =   5.5098555805061E+00
(PID.TID 0000.0001) %MON dynstat_theta_sd             =   4.7734479796995E+00
(PID.TID 0000.0001) %MON dynstat_theta_del2           =   4.0023706910754E-06
(PID.TID 0000.0001) %MON dynstat_salt_max             =   3.9180974990971E+01
(PID.TID 0000.0001) %MON dynstat_salt_min             =   3.3091332685715E+01
(PID.TID 0000.0001) %MON dynstat_salt_mean            =   3.5173370049219E+01
(PID.TID 0000.0001) %MON dynstat_salt_sd              =   3.7891249005426E-01
(PID.TID 0000.0001) %MON dynstat_salt_del2            =   4.9706695467171E-07
(PID.TID 0000.0001) %MON dynstat_sst_max              =   2.6138628090349E+01
(PID.TID 0000.0001) %MON dynstat_sst_min              =   4.0484304520115E+00
(PID.TID 0000.0001) %MON dynstat_sst_mean             =   1.9644816779925E+01
(PID.TID 0000.0001) %MON dynstat_sst_sd               =   3.6388228743100E+00
(PID.TID 0000.0001) %MON dynstat_sst_del2             =   1.9071768314610E-05
(PID.TID 0000.0001) %MON dynstat_sss_max              =   3.7335489474705E+01
(PID.TID 0000.0001) %MON dynstat_sss_min              =   3.3091332685715E+01
(PID.TID 0000.0001) %MON dynstat_sss_mean             =   3.5868071003148E+01
(PID.TID 0000.0001) %MON dynstat_sss_sd               =   4.8719138155097E-01
(PID.TID 0000.0001) %MON dynstat_sss_del2             =   4.9960783020837E-06
(PID.TID 0000.0001) %MON forcing_qnet_max             =   1.1587144150115E+03
(PID.TID 0000.0001) %MON forcing_qnet_min             =  -2.6562031187663E+02
(PID.TID 0000.0001) %MON forcing_qnet_mean            =   2.4605064800622E+02
(PID.TID 0000.0001) %MON forcing_qnet_sd              =   1.4593275964568E+02
(PID.TID 0000.0001) %MON forcing_qnet_del2            =   1.6903758982624E-03
(PID.TID 0000.0001) %MON forcing_qsw_max              =   0.0000000000000E+00
(PID.TID 0000.0001) %MON forcing_qsw_min              =   0.0000000000000E+00
(PID.TID 0000.0001) %MON forcing_qsw_mean             =   0.0000000000000E+00
(PID.TID 0000.0001) %MON forcing_qsw_sd               =   0.0000000000000E+00
(PID.TID 0000.0001) %MON forcing_qsw_del2             =   0.0000000000000E+00
(PID.TID 0000.0001) %MON forcing_empmr_max            =   2.6116475166675E-04
(PID.TID 0000.0001) %MON forcing_empmr_min            =  -1.0214099097755E-03
(PID.TID 0000.0001) %MON forcing_empmr_mean           =   1.2571850465992E-05
(PID.TID 0000.0001) %MON forcing_empmr_sd             =   1.0126696192964E-04
(PID.TID 0000.0001) %MON forcing_empmr_del2           =   2.5459321394782E-09
(PID.TID 0000.0001) %MON forcing_fu_max               =   8.3622009725465E-01
(PID.TID 0000.0001) %MON forcing_fu_min               =  -4.2581577380686E-01
(PID.TID 0000.0001) %MON forcing_fu_mean              =   6.3072656390868E-02
(PID.TID 0000.0001) %MON forcing_fu_sd                =   1.5638220475697E-01
(PID.TID 0000.0001) %MON forcing_fu_del2              =   3.8123434002676E-07
(PID.TID 0000.0001) %MON forcing_fv_max               =   4.0884294970418E-01
(PID.TID 0000.0001) %MON forcing_fv_min               =  -5.7257051183546E-01
(PID.TID 0000.0001) %MON forcing_fv_mean              =   1.0651913369420E-02
(PID.TID 0000.0001) %MON forcing_fv_sd                =   1.0278903103048E-01
(PID.TID 0000.0001) %MON forcing_fv_del2              =   2.8585284158252E-07
(PID.TID 0000.0001) %MON trAdv_CFL_u_max              =   7.8246317491544E-02
(PID.TID 0000.0001) %MON trAdv_CFL_v_max              =   1.2556957474416E-01
(PID.TID 0000.0001) %MON trAdv_CFL_w_max              =   5.0132331637330E-01
(PID.TID 0000.0001) %MON advcfl_uvel_max              =   7.8246316426150E-02
(PID.TID 0000.0001) %MON advcfl_vvel_max              =   1.2560611064161E-01
(PID.TID 0000.0001) %MON advcfl_wvel_max              =   5.0281092265334E-01
(PID.TID 0000.0001) %MON advcfl_W_hf_max              =   5.0430738373266E-01
(PID.TID 0000.0001) %MON pe_b_mean                    =  -1.4503502883016E-04
(PID.TID 0000.0001) %MON ke_max                       =   1.7552873614331E+00
(PID.TID 0000.0001) %MON ke_mean                      =   2.5204183595268E-03
(PID.TID 0000.0001) %MON ke_vol                       =   4.5818637279720E+16
(PID.TID 0000.0001) %MON vort_r_min                   =  -4.6831362627105E-04
(PID.TID 0000.0001) %MON vort_r_max                   =   6.0348956131477E-04
(PID.TID 0000.0001) %MON vort_a_mean                  =   8.2147629334876E-05
(PID.TID 0000.0001) %MON vort_a_sd                    =   1.0122352639139E-05
(PID.TID 0000.0001) %MON vort_p_mean                  =   8.4848850849403E-05
(PID.TID 0000.0001) %MON vort_p_sd                    =   3.4978363758787E-05
(PID.TID 0000.0001) %MON surfExpan_theta_mean         =  -1.1740658299462E-05
(PID.TID 0000.0001) %MON surfExpan_salt_mean          =  -3.8327641629801E-04
(PID.TID 0000.0001) // =======================================================
(PID.TID 0000.0001) // End MONITOR dynamic field statistics
(PID.TID 0000.0001) // =======================================================
(PID.TID 0000.0001) // =======================================================
(PID.TID 0000.0001) // Begin OBCS MONITOR field statistics
(PID.TID 0000.0001) // =======================================================
(PID.TID 0000.0001) %MON obc_N_vVel_max               =   6.9561473952318E-01
(PID.TID 0000.0001) %MON obc_N_vVel_min               =  -3.2210984061472E-01
(PID.TID 0000.0001) %MON obc_N_vVel_mean              =   1.3386422536623E-02
(PID.TID 0000.0001) %MON obc_N_vVel_sd                =   6.4693635573125E-02
(PID.TID 0000.0001) %MON obc_N_vVel_Int               =   1.9162776926476E+08
(PID.TID 0000.0001) %MON obc_S_vVel_max               =   1.9873820750718E+00
(PID.TID 0000.0001) %MON obc_S_vVel_min               =  -2.6220596923867E-01
(PID.TID 0000.0001) %MON obc_S_vVel_mean              =   2.0408797773561E-03
(PID.TID 0000.0001) %MON obc_S_vVel_sd                =   3.5842793074871E-02
(PID.TID 0000.0001) %MON obc_S_vVel_Int               =   6.2130298306548E+07
(PID.TID 0000.0001) %MON obc_N_theta_max              =   1.6390596738603E+01
(PID.TID 0000.0001) %MON obc_N_theta_min              =   1.8895908741817E+00
(PID.TID 0000.0001) %MON obc_N_theta_mean             =   5.1589583494387E+00
(PID.TID 0000.0001) %MON obc_N_theta_sd               =   3.4827060621667E+00
(PID.TID 0000.0001) %MON obc_S_theta_max              =   2.5544633062468E+01
(PID.TID 0000.0001) %MON obc_S_theta_min              =   1.4632968297484E+00
(PID.TID 0000.0001) %MON obc_S_theta_mean             =   5.4595553651376E+00
(PID.TID 0000.0001) %MON obc_S_theta_sd               =   5.3559254217424E+00
(PID.TID 0000.0001) %MON obc_N_salt_max               =   3.5910866422869E+01
(PID.TID 0000.0001) %MON obc_N_salt_min               =   3.3295030577945E+01
(PID.TID 0000.0001) %MON obc_N_salt_mean              =   3.5114563428390E+01
(PID.TID 0000.0001) %MON obc_N_salt_sd                =   3.0984897118963E-01
(PID.TID 0000.0001) %MON obc_S_salt_max               =   3.7318325977469E+01
(PID.TID 0000.0001) %MON obc_S_salt_min               =   3.4844694470478E+01
(PID.TID 0000.0001) %MON obc_S_salt_mean              =   3.5168372723084E+01
(PID.TID 0000.0001) %MON obc_S_salt_sd                =   4.5717005460235E-01
(PID.TID 0000.0001) // =======================================================
(PID.TID 0000.0001) // End OBCS MONITOR field statistics
(PID.TID 0000.0001) // =======================================================
(PID.TID 0000.0001) // =======================================================
(PID.TID 0000.0001) // Begin MONITOR EXF statistics
(PID.TID 0000.0001) // =======================================================
(PID.TID 0000.0001) %MON exf_tsnumber                 =                     3
(PID.TID 0000.0001) %MON exf_time_sec                 =   7.2000000000000E+02
(PID.TID 0000.0001) %MON exf_ustress_max              =   8.3606690073956E-01
(PID.TID 0000.0001) %MON exf_ustress_min              =  -4.2259184845386E-01
(PID.TID 0000.0001) %MON exf_ustress_mean             =   6.2970112932839E-02
(PID.TID 0000.0001) %MON exf_ustress_sd               =   1.5583991043314E-01
(PID.TID 0000.0001) %MON exf_ustress_del2             =   4.0624710476011E-07
(PID.TID 0000.0001) %MON exf_vstress_max              =   4.0174969840163E-01
(PID.TID 0000.0001) %MON exf_vstress_min              =  -5.6774815322795E-01
(PID.TID 0000.0001) %MON exf_vstress_mean             =   1.0653216883168E-02
(PID.TID 0000.0001) %MON exf_vstress_sd               =   1.0222107341845E-01
(PID.TID 0000.0001) %MON exf_vstress_del2             =   2.8955303868543E-07
(PID.TID 0000.0001) %MON exf_hflux_max                =   1.1411912784915E+03
(PID.TID 0000.0001) %MON exf_hflux_min                =  -2.6437245379053E+02
(PID.TID 0000.0001) %MON exf_hflux_mean               =   2.4340608788444E+02
(PID.TID 0000.0001) %MON exf_hflux_sd                 =   1.4243603330889E+02
(PID.TID 0000.0001) %MON exf_hflux_del2               =   6.3532356651504E-02
(PID.TID 0000.0001) %MON exf_sflux_max                =   2.6023322530233E-07
(PID.TID 0000.0001) %MON exf_sflux_min                =  -1.1464378443191E-06
(PID.TID 0000.0001) %MON exf_sflux_mean               =   1.3434409666401E-08
(PID.TID 0000.0001) %MON exf_sflux_sd                 =   1.0476659835012E-07
(PID.TID 0000.0001) %MON exf_sflux_del2               =   2.4503305158871E-11
(PID.TID 0000.0001) %MON exf_uwind_max                =   1.9557462247021E+01
(PID.TID 0000.0001) %MON exf_uwind_min                =  -1.5072247256795E+01
(PID.TID 0000.0001) %MON exf_uwind_mean               =   2.4688608615395E+00
(PID.TID 0000.0001) %MON exf_uwind_sd                 =   6.6812341259826E+00
(PID.TID 0000.0001) %MON exf_uwind_del2               =   1.5843280900670E-03
(PID.TID 0000.0001) %MON exf_vwind_max                =   1.4512032247387E+01
(PID.TID 0000.0001) %MON exf_vwind_min                =  -1.2804783511253E+01
(PID.TID 0000.0001) %MON exf_vwind_mean               =   8.4990528272804E-01
(PID.TID 0000.0001) %MON exf_vwind_sd                 =   5.2057873700606E+00
(PID.TID 0000.0001) %MON exf_vwind_del2               =   1.1784795751543E-03
(PID.TID 0000.0001) %MON exf_wspeed_max               =   2.0490372423246E+01
(PID.TID 0000.0001) %MON exf_wspeed_min               =   3.7852476372837E-03
(PID.TID 0000.0001) %MON exf_wspeed_mean              =   7.7361213021025E+00
(PID.TID 0000.0001) %MON exf_wspeed_sd                =   4.3254076953372E+00
(PID.TID 0000.0001) %MON exf_wspeed_del2              =   1.9743676160277E-03
(PID.TID 0000.0001) %MON exf_atemp_max                =   2.9817123573216E+02
(PID.TID 0000.0001) %MON exf_atemp_min                =   2.7447496410562E+02
(PID.TID 0000.0001) %MON exf_atemp_mean               =   2.9069278314686E+02
(PID.TID 0000.0001) %MON exf_atemp_sd                 =   3.9438216819645E+00
(PID.TID 0000.0001) %MON exf_atemp_del2               =   3.8854106517690E-03
(PID.TID 0000.0001) %MON exf_aqh_max                  =   1.6801511569976E-02
(PID.TID 0000.0001) %MON exf_aqh_min                  =   2.7331799636637E-03
(PID.TID 0000.0001) %MON exf_aqh_mean                 =   9.4252080437865E-03
(PID.TID 0000.0001) %MON exf_aqh_sd                   =   2.8726445463744E-03
(PID.TID 0000.0001) %MON exf_aqh_del2                 =   2.1276317330230E-06
(PID.TID 0000.0001) %MON exf_lwflux_max               =   1.5079978767214E+02
(PID.TID 0000.0001) %MON exf_lwflux_min               =   1.3832291145161E+01
(PID.TID 0000.0001) %MON exf_lwflux_mean              =   6.8922172676271E+01
(PID.TID 0000.0001) %MON exf_lwflux_sd                =   2.1648885481619E+01
(PID.TID 0000.0001) %MON exf_lwflux_del2              =   1.5813815817361E-02
(PID.TID 0000.0001) %MON exf_evap_max                 =   2.7197479941374E-07
(PID.TID 0000.0001) %MON exf_evap_min                 =  -9.2069772557700E-08
(PID.TID 0000.0001) %MON exf_evap_mean                =   5.9416165579693E-08
(PID.TID 0000.0001) %MON exf_evap_sd                  =   4.2206021151370E-08
(PID.TID 0000.0001) %MON exf_evap_del2                =   1.6385971604975E-11
(PID.TID 0000.0001) %MON exf_precip_max               =   1.3194517282558E-06
(PID.TID 0000.0001) %MON exf_precip_min               =   0.0000000000000E+00
(PID.TID 0000.0001) %MON exf_precip_mean              =   4.4393276341302E-08
(PID.TID 0000.0001) %MON exf_precip_sd                =   1.0414729538968E-07
(PID.TID 0000.0001) %MON exf_precip_del2              =   2.6605721241313E-11
(PID.TID 0000.0001) %MON exf_swflux_max               =   0.0000000000000E+00
(PID.TID 0000.0001) %MON exf_swflux_min               =   0.0000000000000E+00
(PID.TID 0000.0001) %MON exf_swflux_mean              =   0.0000000000000E+00
(PID.TID 0000.0001) %MON exf_swflux_sd                =   0.0000000000000E+00
(PID.TID 0000.0001) %MON exf_swflux_del2              =   0.0000000000000E+00
(PID.TID 0000.0001) %MON exf_swdown_max               =   0.0000000000000E+00
(PID.TID 0000.0001) %MON exf_swdown_min               =   0.0000000000000E+00
(PID.TID 0000.0001) %MON exf_swdown_mean              =   0.0000000000000E+00
(PID.TID 0000.0001) %MON exf_swdown_sd                =   0.0000000000000E+00
(PID.TID 0000.0001) %MON exf_swdown_del2              =   0.0000000000000E+00
(PID.TID 0000.0001) %MON exf_lwdown_max               =   3.9966786258788E+02
(PID.TID 0000.0001) %MON exf_lwdown_min               =   2.2872731864686E+02
(PID.TID 0000.0001) %MON exf_lwdown_mean              =   3.4604191952063E+02
(PID.TID 0000.0001) %MON exf_lwdown_sd                =   2.6718018050530E+01
(PID.TID 0000.0001) %MON exf_lwdown_del2              =   7.5772256427114E-02
(PID.TID 0000.0001) %MON exf_apressure_max            =   1.0278993894187E+05
(PID.TID 0000.0001) %MON exf_apressure_min            =   9.9988779519372E+04
(PID.TID 0000.0001) %MON exf_apressure_mean           =   1.0216141071818E+05
(PID.TID 0000.0001) %MON exf_apressure_sd             =   4.9989955009419E+02
(PID.TID 0000.0001) %MON exf_apressure_del2           =   2.2356127128656E+01
(PID.TID 0000.0001) %MON exf_runoff_max               =   4.4374798712073E-08
(PID.TID 0000.0001) %MON exf_runoff_min               =   0.0000000000000E+00
(PID.TID 0000.0001) %MON exf_runoff_mean              =   1.5884795719908E-09
(PID.TID 0000.0001) %MON exf_runoff_sd                =   5.3901959599983E-09
(PID.TID 0000.0001) %MON exf_runoff_del2              =   1.2741189756369E-12
(PID.TID 0000.0001) // =======================================================
(PID.TID 0000.0001) // End MONITOR EXF statistics
(PID.TID 0000.0001) // =======================================================
 cg2d: Sum(rhs),rhsMax =   2.95181185606380E+02  3.58935755546754E-02
(PID.TID 0000.0001)      cg2d_init_res =   2.15590967899820E+00
(PID.TID 0000.0001)      cg2d_iters(min,last) =      -1     317
(PID.TID 0000.0001)      cg2d_last_res =   6.92575311651259E-12
(PID.TID 0000.0001) // =======================================================
(PID.TID 0000.0001) // Begin MONITOR dynamic field statistics
(PID.TID 0000.0001) // =======================================================
(PID.TID 0000.0001) %MON time_tsnumber                =                     4
(PID.TID 0000.0001) %MON time_secondsf                =   9.6000000000000E+02
(PID.TID 0000.0001) %MON dynstat_eta_max              =   1.0214325215448E+00
(PID.TID 0000.0001) %MON dynstat_eta_min              =  -1.4978317591924E+00
(PID.TID 0000.0001) %MON dynstat_eta_mean             =  -1.0038256420190E-02
(PID.TID 0000.0001) %MON dynstat_eta_sd               =   1.5079257636297E-01
(PID.TID 0000.0001) %MON dynstat_eta_del2             =   2.7423497772384E-06
(PID.TID 0000.0001) %MON dynstat_uvel_max             =   1.2944593061725E+00
(PID.TID 0000.0001) %MON dynstat_uvel_min             =  -9.5948891555586E-01
(PID.TID 0000.0001) %MON dynstat_uvel_mean            =   3.4984022855675E-03
(PID.TID 0000.0001) %MON dynstat_uvel_sd              =   5.2380111528153E-02
(PID.TID 0000.0001) %MON dynstat_uvel_del2            =   4.6529997032448E-07
(PID.TID 0000.0001) %MON dynstat_vvel_max             =   2.0516105064972E+00
(PID.TID 0000.0001) %MON dynstat_vvel_min             =  -9.0270699107971E-01
(PID.TID 0000.0001) %MON dynstat_vvel_mean            =  -2.0189772469063E-03
(PID.TID 0000.0001) %MON dynstat_vvel_sd              =   4.8286403047534E-02
(PID.TID 0000.0001) %MON dynstat_vvel_del2            =   4.2479262368738E-07
(PID.TID 0000.0001) %MON dynstat_wvel_max             =   3.7214860058057E-02
(PID.TID 0000.0001) %MON dynstat_wvel_min             =  -3.1709119268346E-02
(PID.TID 0000.0001) %MON dynstat_wvel_mean            =  -6.7548297683258E-06
(PID.TID 0000.0001) %MON dynstat_wvel_sd              =   5.8883405812629E-04
(PID.TID 0000.0001) %MON dynstat_wvel_del2            =   8.5573205157282E-08
(PID.TID 0000.0001) %MON dynstat_theta_max            =   2.6140697989777E+01
(PID.TID 0000.0001) %MON dynstat_theta_min            =   1.4688639503285E+00
(PID.TID 0000.0001) %MON dynstat_theta_mean           =   5.5098499375570E+00
(PID.TID 0000.0001) %MON dynstat_theta_sd             =   4.7734220458597E+00
(PID.TID 0000.0001) %MON dynstat_theta_del2           =   4.0043854482842E-06
(PID.TID 0000.0001) %MON dynstat_salt_max             =   3.9178855507256E+01
(PID.TID 0000.0001) %MON dynstat_salt_min             =   3.3091989130014E+01
(PID.TID 0000.0001) %MON dynstat_salt_mean            =   3.5173368895425E+01
(PID.TID 0000.0001) %MON dynstat_salt_sd              =   3.7891145283680E-01
(PID.TID 0000.0001) %MON dynstat_salt_del2            =   4.9959579094546E-07
(PID.TID 0000.0001) %MON dynstat_sst_max              =   2.6137834054044E+01
(PID.TID 0000.0001) %MON dynstat_sst_min              =   4.0343723753209E+00
(PID.TID 0000.0001) %MON dynstat_sst_mean             =   1.9643538860042E+01
(PID.TID 0000.0001) %MON dynstat_sst_sd               =   3.6388576557398E+00
(PID.TID 0000.0001) %MON dynstat_sst_del2             =   1.9066682444211E-05
(PID.TID 0000.0001) %MON dynstat_sss_max              =   3.7335574135304E+01
(PID.TID 0000.0001) %MON dynstat_sss_min              =   3.3091989130014E+01
(PID.TID 0000.0001) %MON dynstat_sss_mean             =   3.5868110412119E+01
(PID.TID 0000.0001) %MON dynstat_sss_sd               =   4.8719174994135E-01
(PID.TID 0000.0001) %MON dynstat_sss_del2             =   4.9837037907029E-06
(PID.TID 0000.0001) %MON forcing_qnet_max             =   1.1589474216673E+03
(PID.TID 0000.0001) %MON forcing_qnet_min             =  -2.6948025650763E+02
(PID.TID 0000.0001) %MON forcing_qnet_mean            =   2.4518296312026E+02
(PID.TID 0000.0001) %MON forcing_qnet_sd              =   1.4498915177843E+02
(PID.TID 0000.0001) %MON forcing_qnet_del2            =   1.6838428286135E-03
(PID.TID 0000.0001) %MON forcing_qsw_max              =   0.0000000000000E+00
(PID.TID 0000.0001) %MON forcing_qsw_min              =   0.0000000000000E+00
(PID.TID 0000.0001) %MON forcing_qsw_mean             =   0.0000000000000E+00
(PID.TID 0000.0001) %MON forcing_qsw_sd               =   0.0000000000000E+00
(PID.TID 0000.0001) %MON forcing_qsw_del2             =   0.0000000000000E+00
(PID.TID 0000.0001) %MON forcing_empmr_max            =   2.6023322530233E-04
(PID.TID 0000.0001) %MON forcing_empmr_min            =  -1.1464378443191E-03
(PID.TID 0000.0001) %MON forcing_empmr_mean           =   1.3434409666401E-05
(PID.TID 0000.0001) %MON forcing_empmr_sd             =   1.0476659835012E-04
(PID.TID 0000.0001) %MON forcing_empmr_del2           =   2.6475355308369E-09
(PID.TID 0000.0001) %MON forcing_fu_max               =   8.3420518338727E-01
(PID.TID 0000.0001) %MON forcing_fu_min               =  -4.2249198742470E-01
(PID.TID 0000.0001) %MON forcing_fu_mean              =   6.3027245656747E-02
(PID.TID 0000.0001) %MON forcing_fu_sd                =   1.5589889389672E-01
(PID.TID 0000.0001) %MON forcing_fu_del2              =   3.6457085632716E-07
(PID.TID 0000.0001) %MON forcing_fv_max               =   4.0129453549473E-01
(PID.TID 0000.0001) %MON forcing_fv_min               =  -5.7045716264383E-01
(PID.TID 0000.0001) %MON forcing_fv_mean              =   1.0633047052729E-02
(PID.TID 0000.0001) %MON forcing_fv_sd                =   1.0235087546861E-01
(PID.TID 0000.0001) %MON forcing_fv_del2              =   2.6908033503431E-07
(PID.TID 0000.0001) %MON trAdv_CFL_u_max              =   7.8535833638973E-02
(PID.TID 0000.0001) %MON trAdv_CFL_v_max              =   1.2962774600461E-01
(PID.TID 0000.0001) %MON trAdv_CFL_w_max              =   4.8279765134704E-01
(PID.TID 0000.0001) %MON advcfl_uvel_max              =   7.8535832569637E-02
(PID.TID 0000.0001) %MON advcfl_vvel_max              =   1.2966546267318E-01
(PID.TID 0000.0001) %MON advcfl_wvel_max              =   4.8423028532730E-01
(PID.TID 0000.0001) %MON advcfl_W_hf_max              =   4.8567144689077E-01
(PID.TID 0000.0001) %MON pe_b_mean                    =  -2.1492584623233E-04
(PID.TID 0000.0001) %MON ke_max                       =   1.8773607512685E+00
(PID.TID 0000.0001) %MON ke_mean                      =   2.5269365210073E-03
(PID.TID 0000.0001) %MON ke_vol                       =   4.5818637279720E+16
(PID.TID 0000.0001) %MON vort_r_min                   =  -4.8883283306301E-04
(PID.TID 0000.0001) %MON vort_r_max                   =   5.7652350183983E-04
(PID.TID 0000.0001) %MON vort_a_mean                  =   8.2147628585905E-05
(PID.TID 0000.0001) %MON vort_a_sd                    =   1.0123610972634E-05
(PID.TID 0000.0001) %MON vort_p_mean                  =   8.4848850075804E-05
(PID.TID 0000.0001) %MON vort_p_sd                    =   3.4975114061360E-05
(PID.TID 0000.0001) %MON surfExpan_theta_mean         =  -5.2507723660839E-05
(PID.TID 0000.0001) %MON surfExpan_salt_mean          =  -4.5638544889063E-04
(PID.TID 0000.0001) // =======================================================
(PID.TID 0000.0001) // End MONITOR dynamic field statistics
(PID.TID 0000.0001) // =======================================================
(PID.TID 0000.0001) // =======================================================
(PID.TID 0000.0001) // Begin OBCS MONITOR field statistics
(PID.TID 0000.0001) // =======================================================
(PID.TID 0000.0001) %MON obc_N_vVel_max               =   6.9553192130751E-01
(PID.TID 0000.0001) %MON obc_N_vVel_min               =  -3.2224932600846E-01
(PID.TID 0000.0001) %MON obc_N_vVel_mean              =   1.3451067297277E-02
(PID.TID 0000.0001) %MON obc_N_vVel_sd                =   6.4688179853585E-02
(PID.TID 0000.0001) %MON obc_N_vVel_Int               =   1.9255316447359E+08
(PID.TID 0000.0001) %MON obc_S_vVel_max               =   2.0516105064972E+00
(PID.TID 0000.0001) %MON obc_S_vVel_min               =  -2.6233395479551E-01
(PID.TID 0000.0001) %MON obc_S_vVel_mean              =   1.3372914318189E-03
(PID.TID 0000.0001) %MON obc_S_vVel_sd                =   3.5879578143183E-02
(PID.TID 0000.0001) %MON obc_S_vVel_Int               =   4.0711028892322E+07
(PID.TID 0000.0001) %MON obc_N_theta_max              =   1.6390508636415E+01
(PID.TID 0000.0001) %MON obc_N_theta_min              =   1.8895909232471E+00
(PID.TID 0000.0001) %MON obc_N_theta_mean             =   5.1589509652887E+00
(PID.TID 0000.0001) %MON obc_N_theta_sd               =   3.4826967698724E+00
(PID.TID 0000.0001) %MON obc_S_theta_max              =   2.5544530313689E+01
(PID.TID 0000.0001) %MON obc_S_theta_min              =   1.4632972260357E+00
(PID.TID 0000.0001) %MON obc_S_theta_mean             =   5.4595545601130E+00
(PID.TID 0000.0001) %MON obc_S_theta_sd               =   5.3559215504875E+00
(PID.TID 0000.0001) %MON obc_N_salt_max               =   3.5910866014505E+01
(PID.TID 0000.0001) %MON obc_N_salt_min               =   3.3295036080578E+01
(PID.TID 0000.0001) %MON obc_N_salt_mean              =   3.5114563132403E+01
(PID.TID 0000.0001) %MON obc_N_salt_sd                =   3.0984885181404E-01
(PID.TID 0000.0001) %MON obc_S_salt_max               =   3.7318319093085E+01
(PID.TID 0000.0001) %MON obc_S_salt_min               =   3.4844694522698E+01
(PID.TID 0000.0001) %MON obc_S_salt_mean              =   3.5168372651167E+01
(PID.TID 0000.0001) %MON obc_S_salt_sd                =   4.5716970351760E-01
(PID.TID 0000.0001) // =======================================================
(PID.TID 0000.0001) // End OBCS MONITOR field statistics
(PID.TID 0000.0001) // =======================================================
(PID.TID 0000.0001) // =======================================================
(PID.TID 0000.0001) // Begin MONITOR EXF statistics
(PID.TID 0000.0001) // =======================================================
(PID.TID 0000.0001) %MON exf_tsnumber                 =                     4
(PID.TID 0000.0001) %MON exf_time_sec                 =   9.6000000000000E+02
(PID.TID 0000.0001) %MON exf_ustress_max              =   8.3490813892563E-01
(PID.TID 0000.0001) %MON exf_ustress_min              =  -4.1944457828978E-01
(PID.TID 0000.0001) %MON exf_ustress_mean             =   6.2959166105466E-02
(PID.TID 0000.0001) %MON exf_ustress_sd               =   1.5546704017935E-01
(PID.TID 0000.0001) %MON exf_ustress_del2             =   3.9395235555946E-07
(PID.TID 0000.0001) %MON exf_vstress_max              =   3.9651773046821E-01
(PID.TID 0000.0001) %MON exf_vstress_min              =  -5.6574900711509E-01
(PID.TID 0000.0001) %MON exf_vstress_mean             =   1.0650498614418E-02
(PID.TID 0000.0001) %MON exf_vstress_sd               =   1.0188762405544E-01
(PID.TID 0000.0001) %MON exf_vstress_del2             =   2.7705281470833E-07
(PID.TID 0000.0001) %MON exf_hflux_max                =   1.1440493179204E+03
(PID.TID 0000.0001) %MON exf_hflux_min                =  -2.6847986032804E+02
(PID.TID 0000.0001) %MON exf_hflux_mean               =   2.4249794297417E+02
(PID.TID 0000.0001) %MON exf_hflux_sd                 =   1.4179872411696E+02
(PID.TID 0000.0001) %MON exf_hflux_del2               =   6.3279465690969E-02
(PID.TID 0000.0001) %MON exf_sflux_max                =   2.5934645031743E-07
(PID.TID 0000.0001) %MON exf_sflux_min                =  -1.2714459990103E-06
(PID.TID 0000.0001) %MON exf_sflux_mean               =   1.4308674195133E-08
(PID.TID 0000.0001) %MON exf_sflux_sd                 =   1.0961702743671E-07
(PID.TID 0000.0001) %MON exf_sflux_del2               =   2.5868698127164E-11
(PID.TID 0000.0001) %MON exf_uwind_max                =   1.9559089986807E+01
(PID.TID 0000.0001) %MON exf_uwind_min                =  -1.5034547548713E+01
(PID.TID 0000.0001) %MON exf_uwind_mean               =   2.4703567667471E+00
(PID.TID 0000.0001) %MON exf_uwind_sd                 =   6.6765099660939E+00
(PID.TID 0000.0001) %MON exf_uwind_del2               =   1.5841056147455E-03
(PID.TID 0000.0001) %MON exf_vwind_max                =   1.4443352685229E+01
(PID.TID 0000.0001) %MON exf_vwind_min                =  -1.2792238249265E+01
(PID.TID 0000.0001) %MON exf_vwind_mean               =   8.5164800957516E-01
(PID.TID 0000.0001) %MON exf_vwind_sd                 =   5.1967811125970E+00
(PID.TID 0000.0001) %MON exf_vwind_del2               =   1.1760984265709E-03
(PID.TID 0000.0001) %MON exf_wspeed_max               =   2.0442977602010E+01
(PID.TID 0000.0001) %MON exf_wspeed_min               =   2.0717639876733E-02
(PID.TID 0000.0001) %MON exf_wspeed_mean              =   7.7286247770383E+00
(PID.TID 0000.0001) %MON exf_wspeed_sd                =   4.3218798227822E+00
(PID.TID 0000.0001) %MON exf_wspeed_del2              =   1.9727786345183E-03
(PID.TID 0000.0001) %MON exf_atemp_max                =   2.9816903840348E+02
(PID.TID 0000.0001) %MON exf_atemp_min                =   2.7444936275877E+02
(PID.TID 0000.0001) %MON exf_atemp_mean               =   2.9068966194096E+02
(PID.TID 0000.0001) %MON exf_atemp_sd                 =   3.9435705119777E+00
(PID.TID 0000.0001) %MON exf_atemp_del2               =   3.8847541276505E-03
(PID.TID 0000.0001) %MON exf_aqh_max                  =   1.6794525319646E-02
(PID.TID 0000.0001) %MON exf_aqh_min                  =   2.7308852542994E-03
(PID.TID 0000.0001) %MON exf_aqh_mean                 =   9.4240198909400E-03
(PID.TID 0000.0001) %MON exf_aqh_sd                   =   2.8724835831864E-03
(PID.TID 0000.0001) %MON exf_aqh_del2                 =   2.1272355683662E-06
(PID.TID 0000.0001) %MON exf_lwflux_max               =   1.5068735720682E+02
(PID.TID 0000.0001) %MON exf_lwflux_min               =   1.1240454352465E+01
(PID.TID 0000.0001) %MON exf_lwflux_mean              =   6.8144887214809E+01
(PID.TID 0000.0001) %MON exf_lwflux_sd                =   2.2436210664924E+01
(PID.TID 0000.0001) %MON exf_lwflux_del2              =   1.5701389898273E-02
(PID.TID 0000.0001) %MON exf_evap_max                 =   2.7340261961499E-07
(PID.TID 0000.0001) %MON exf_evap_min                 =  -9.2617540503125E-08
(PID.TID 0000.0001) %MON exf_evap_mean                =   5.9366564190038E-08
(PID.TID 0000.0001) %MON exf_evap_sd                  =   4.2144249154129E-08
(PID.TID 0000.0001) %MON exf_evap_del2                =   1.6373616791018E-11
(PID.TID 0000.0001) %MON exf_precip_max               =   1.4451137976135E-06
(PID.TID 0000.0001) %MON exf_precip_min               =   0.0000000000000E+00
(PID.TID 0000.0001) %MON exf_precip_mean              =   4.3469410422914E-08
(PID.TID 0000.0001) %MON exf_precip_sd                =   1.1052625452710E-07
(PID.TID 0000.0001) %MON exf_precip_del2              =   2.8082694523231E-11
(PID.TID 0000.0001) %MON exf_swflux_max               =   0.0000000000000E+00
(PID.TID 0000.0001) %MON exf_swflux_min               =   0.0000000000000E+00
(PID.TID 0000.0001) %MON exf_swflux_mean              =   0.0000000000000E+00
(PID.TID 0000.0001) %MON exf_swflux_sd                =   0.0000000000000E+00
(PID.TID 0000.0001) %MON exf_swflux_del2              =   0.0000000000000E+00
(PID.TID 0000.0001) %MON exf_swdown_max               =   0.0000000000000E+00
(PID.TID 0000.0001) %MON exf_swdown_min               =   0.0000000000000E+00
(PID.TID 0000.0001) %MON exf_swdown_mean              =   0.0000000000000E+00
(PID.TID 0000.0001) %MON exf_swdown_sd                =   0.0000000000000E+00
(PID.TID 0000.0001) %MON exf_swdown_del2              =   0.0000000000000E+00
(PID.TID 0000.0001) %MON exf_lwdown_max               =   4.0121794222416E+02
(PID.TID 0000.0001) %MON exf_lwdown_min               =   2.2846851820436E+02
(PID.TID 0000.0001) %MON exf_lwdown_mean              =   3.4683597339020E+02
(PID.TID 0000.0001) %MON exf_lwdown_sd                =   2.7582519051596E+01
(PID.TID 0000.0001) %MON exf_lwdown_del2              =   7.5968774275328E-02
(PID.TID 0000.0001) %MON exf_apressure_max            =   1.0279144997627E+05
(PID.TID 0000.0001) %MON exf_apressure_min            =   9.9993666802430E+04
(PID.TID 0000.0001) %MON exf_apressure_mean           =   1.0216218802452E+05
(PID.TID 0000.0001) %MON exf_apressure_sd             =   4.9961757443131E+02
(PID.TID 0000.0001) %MON exf_apressure_del2           =   2.2356314556156E+01
(PID.TID 0000.0001) %MON exf_runoff_max               =   4.4374798712073E-08
(PID.TID 0000.0001) %MON exf_runoff_min               =   0.0000000000000E+00
(PID.TID 0000.0001) %MON exf_runoff_mean              =   1.5884795719908E-09
(PID.TID 0000.0001) %MON exf_runoff_sd                =   5.3901959599983E-09
(PID.TID 0000.0001) %MON exf_runoff_del2              =   1.2741189756369E-12
(PID.TID 0000.0001) // =======================================================
(PID.TID 0000.0001) // End MONITOR EXF statistics
(PID.TID 0000.0001) // =======================================================
 cg2d: Sum(rhs),rhsMax =   4.03838863826267E+02  3.83834128273918E-02
(PID.TID 0000.0001)      cg2d_init_res =   1.84603692709584E+00
(PID.TID 0000.0001)      cg2d_iters(min,last) =      -1     316
(PID.TID 0000.0001)      cg2d_last_res =   6.79159419306726E-12
(PID.TID 0000.0001) // =======================================================
(PID.TID 0000.0001) // Begin MONITOR dynamic field statistics
(PID.TID 0000.0001) // =======================================================
(PID.TID 0000.0001) %MON time_tsnumber                =                     5
(PID.TID 0000.0001) %MON time_secondsf                =   1.2000000000000E+03
(PID.TID 0000.0001) %MON dynstat_eta_max              =   1.0446253521526E+00
(PID.TID 0000.0001) %MON dynstat_eta_min              =  -1.4278544388670E+00
(PID.TID 0000.0001) %MON dynstat_eta_mean             =  -1.3733389068137E-02
(PID.TID 0000.0001) %MON dynstat_eta_sd               =   1.7078848005812E-01
(PID.TID 0000.0001) %MON dynstat_eta_del2             =   2.5003942228581E-06
(PID.TID 0000.0001) %MON dynstat_uvel_max             =   1.2976214586870E+00
(PID.TID 0000.0001) %MON dynstat_uvel_min             =  -9.0739389706553E-01
(PID.TID 0000.0001) %MON dynstat_uvel_mean            =   3.3187125481652E-03
(PID.TID 0000.0001) %MON dynstat_uvel_sd              =   5.2396196889401E-02
(PID.TID 0000.0001) %MON dynstat_uvel_del2            =   4.6893729286280E-07
(PID.TID 0000.0001) %MON dynstat_vvel_max             =   2.1154440145923E+00
(PID.TID 0000.0001) %MON dynstat_vvel_min             =  -9.0650528882673E-01
(PID.TID 0000.0001) %MON dynstat_vvel_mean            =  -2.3962589711220E-03
(PID.TID 0000.0001) %MON dynstat_vvel_sd              =   4.8404114984048E-02
(PID.TID 0000.0001) %MON dynstat_vvel_del2            =   4.2808684107157E-07
(PID.TID 0000.0001) %MON dynstat_wvel_max             =   3.6941469118747E-02
(PID.TID 0000.0001) %MON dynstat_wvel_min             =  -3.1008420416226E-02
(PID.TID 0000.0001) %MON dynstat_wvel_mean            =  -7.9621677630853E-06
(PID.TID 0000.0001) %MON dynstat_wvel_sd              =   5.8738720662437E-04
(PID.TID 0000.0001) %MON dynstat_wvel_del2            =   8.0880550862994E-08
(PID.TID 0000.0001) %MON dynstat_theta_max            =   2.6140334573703E+01
(PID.TID 0000.0001) %MON dynstat_theta_min            =   1.4688640601210E+00
(PID.TID 0000.0001) %MON dynstat_theta_mean           =   5.5098461347462E+00
(PID.TID 0000.0001) %MON dynstat_theta_sd             =   4.7733988519056E+00
(PID.TID 0000.0001) %MON dynstat_theta_del2           =   4.0082589740943E-06
(PID.TID 0000.0001) %MON dynstat_salt_max             =   3.9176411682421E+01
(PID.TID 0000.0001) %MON dynstat_salt_min             =   3.3092703945825E+01
(PID.TID 0000.0001) %MON dynstat_salt_mean            =   3.5173367939270E+01
(PID.TID 0000.0001) %MON dynstat_salt_sd              =   3.7891087484658E-01
(PID.TID 0000.0001) %MON dynstat_salt_del2            =   5.0282212592442E-07
(PID.TID 0000.0001) %MON dynstat_sst_max              =   2.6137107578756E+01
(PID.TID 0000.0001) %MON dynstat_sst_min              =   4.0203616878439E+00
(PID.TID 0000.0001) %MON dynstat_sst_mean             =   1.9642412312673E+01
(PID.TID 0000.0001) %MON dynstat_sst_sd               =   3.6388971921056E+00
(PID.TID 0000.0001) %MON dynstat_sst_del2             =   1.9071742116573E-05
(PID.TID 0000.0001) %MON dynstat_sss_max              =   3.7335657422360E+01
(PID.TID 0000.0001) %MON dynstat_sss_min              =   3.3092703945825E+01
(PID.TID 0000.0001) %MON dynstat_sss_mean             =   3.5868149510604E+01
(PID.TID 0000.0001) %MON dynstat_sss_sd               =   4.8719180413575E-01
(PID.TID 0000.0001) %MON dynstat_sss_del2             =   4.9727520498086E-06
(PID.TID 0000.0001) %MON forcing_qnet_max             =   1.1612389998679E+03
(PID.TID 0000.0001) %MON forcing_qnet_min             =  -2.7353940132004E+02
(PID.TID 0000.0001) %MON forcing_qnet_mean            =   2.4435381201702E+02
(PID.TID 0000.0001) %MON forcing_qnet_sd              =   1.4414970773963E+02
(PID.TID 0000.0001) %MON forcing_qnet_del2            =   1.6743448018477E-03
(PID.TID 0000.0001) %MON forcing_qsw_max              =   0.0000000000000E+00
(PID.TID 0000.0001) %MON forcing_qsw_min              =   0.0000000000000E+00
(PID.TID 0000.0001) %MON forcing_qsw_mean             =   0.0000000000000E+00
(PID.TID 0000.0001) %MON forcing_qsw_sd               =   0.0000000000000E+00
(PID.TID 0000.0001) %MON forcing_qsw_del2             =   0.0000000000000E+00
(PID.TID 0000.0001) %MON forcing_empmr_max            =   2.5934645031743E-04
(PID.TID 0000.0001) %MON forcing_empmr_min            =  -1.2714459990103E-03
(PID.TID 0000.0001) %MON forcing_empmr_mean           =   1.4308674195133E-05
(PID.TID 0000.0001) %MON forcing_empmr_sd             =   1.0961702743671E-04
(PID.TID 0000.0001) %MON forcing_empmr_del2           =   2.7833401362523E-09
(PID.TID 0000.0001) %MON forcing_fu_max               =   8.3288205415845E-01
(PID.TID 0000.0001) %MON forcing_fu_min               =  -4.1937481577006E-01
(PID.TID 0000.0001) %MON forcing_fu_mean              =   6.3016680932848E-02
(PID.TID 0000.0001) %MON forcing_fu_sd                =   1.5552624846957E-01
(PID.TID 0000.0001) %MON forcing_fu_del2              =   3.5215396030545E-07
(PID.TID 0000.0001) %MON forcing_fv_max               =   3.9612181309917E-01
(PID.TID 0000.0001) %MON forcing_fv_min               =  -5.6875610480620E-01
(PID.TID 0000.0001) %MON forcing_fv_mean              =   1.0630601548941E-02
(PID.TID 0000.0001) %MON forcing_fv_sd                =   1.0201796171001E-01
(PID.TID 0000.0001) %MON forcing_fv_del2              =   2.5666177894295E-07
(PID.TID 0000.0001) %MON trAdv_CFL_u_max              =   7.8727683844409E-02
(PID.TID 0000.0001) %MON trAdv_CFL_v_max              =   1.3366096466269E-01
(PID.TID 0000.0001) %MON trAdv_CFL_w_max              =   4.5623944416907E-01
(PID.TID 0000.0001) %MON advcfl_uvel_max              =   7.8727682772460E-02
(PID.TID 0000.0001) %MON advcfl_vvel_max              =   1.3369985484216E-01
(PID.TID 0000.0001) %MON advcfl_wvel_max              =   4.5759327041289E-01
(PID.TID 0000.0001) %MON advcfl_W_hf_max              =   4.5895515514627E-01
(PID.TID 0000.0001) %MON pe_b_mean                    =  -2.9663582687340E-04
(PID.TID 0000.0001) %MON ke_max                       =   2.0258688431796E+00
(PID.TID 0000.0001) %MON ke_mean                      =   2.5336516961528E-03
(PID.TID 0000.0001) %MON ke_vol                       =   4.5818637279720E+16
(PID.TID 0000.0001) %MON vort_r_min                   =  -5.0037606607018E-04
(PID.TID 0000.0001) %MON vort_r_max                   =   5.5101212474100E-04
(PID.TID 0000.0001) %MON vort_a_mean                  =   8.2147627825490E-05
(PID.TID 0000.0001) %MON vort_a_sd                    =   1.0125623787600E-05
(PID.TID 0000.0001) %MON vort_p_mean                  =   8.4848849290384E-05
(PID.TID 0000.0001) %MON vort_p_sd                    =   3.4972815102603E-05
(PID.TID 0000.0001) %MON surfExpan_theta_mean         =  -9.4212887543760E-05
(PID.TID 0000.0001) %MON surfExpan_salt_mean          =  -5.2873982771124E-04
(PID.TID 0000.0001) // =======================================================
(PID.TID 0000.0001) // End MONITOR dynamic field statistics
(PID.TID 0000.0001) // =======================================================
(PID.TID 0000.0001) // =======================================================
(PID.TID 0000.0001) // Begin OBCS MONITOR field statistics
(PID.TID 0000.0001) // =======================================================
(PID.TID 0000.0001) %MON obc_N_vVel_max               =   6.9543718136846E-01
(PID.TID 0000.0001) %MON obc_N_vVel_min               =  -3.2241212391701E-01
(PID.TID 0000.0001) %MON obc_N_vVel_mean              =   1.3501340616437E-02
(PID.TID 0000.0001) %MON obc_N_vVel_sd                =   6.4680224712309E-02
(PID.TID 0000.0001) %MON obc_N_vVel_Int               =   1.9327283128359E+08
(PID.TID 0000.0001) %MON obc_S_vVel_max               =   2.1154440145923E+00
(PID.TID 0000.0001) %MON obc_S_vVel_min               =  -2.6245505327119E-01
(PID.TID 0000.0001) %MON obc_S_vVel_mean              =   6.3302524519791E-04
(PID.TID 0000.0001) %MON obc_S_vVel_sd                =   3.5920573633926E-02
(PID.TID 0000.0001) %MON obc_S_vVel_Int               =   1.9271124029987E+07
(PID.TID 0000.0001) %MON obc_N_theta_max              =   1.6390420534228E+01
(PID.TID 0000.0001) %MON obc_N_theta_min              =   1.8895909723125E+00
(PID.TID 0000.0001) %MON obc_N_theta_mean             =   5.1589435811386E+00
(PID.TID 0000.0001) %MON obc_N_theta_sd               =   3.4826874778161E+00
(PID.TID 0000.0001) %MON obc_S_theta_max              =   2.5544427564909E+01
(PID.TID 0000.0001) %MON obc_S_theta_min              =   1.4632976223230E+00
(PID.TID 0000.0001) %MON obc_S_theta_mean             =   5.4595537550885E+00
(PID.TID 0000.0001) %MON obc_S_theta_sd               =   5.3559176792685E+00
(PID.TID 0000.0001) %MON obc_N_salt_max               =   3.5910865606142E+01
(PID.TID 0000.0001) %MON obc_N_salt_min               =   3.3295041583212E+01
(PID.TID 0000.0001) %MON obc_N_salt_mean              =   3.5114562836417E+01
(PID.TID 0000.0001) %MON obc_N_salt_sd                =   3.0984873248609E-01
(PID.TID 0000.0001) %MON obc_S_salt_max               =   3.7318312208701E+01
(PID.TID 0000.0001) %MON obc_S_salt_min               =   3.4844694574919E+01
(PID.TID 0000.0001) %MON obc_S_salt_mean              =   3.5168372579251E+01
(PID.TID 0000.0001) %MON obc_S_salt_sd                =   4.5716935243014E-01
(PID.TID 0000.0001) // =======================================================
(PID.TID 0000.0001) // End OBCS MONITOR field statistics
(PID.TID 0000.0001) // =======================================================
(PID.TID 0000.0001) // =======================================================
(PID.TID 0000.0001) // Begin MONITOR EXF statistics
(PID.TID 0000.0001) // =======================================================
(PID.TID 0000.0001) %MON exf_tsnumber                 =                     5
(PID.TID 0000.0001) %MON exf_time_sec                 =   1.2000000000000E+03
(PID.TID 0000.0001) %MON exf_ustress_max              =   8.3398174803065E-01
(PID.TID 0000.0001) %MON exf_ustress_min              =  -4.1637814262059E-01
(PID.TID 0000.0001) %MON exf_ustress_mean             =   6.2978634312460E-02
(PID.TID 0000.0001) %MON exf_ustress_sd               =   1.5519043465308E-01
(PID.TID 0000.0001) %MON exf_ustress_del2             =   3.8561038578338E-07
(PID.TID 0000.0001) %MON exf_vstress_max              =   3.9332735842993E-01
(PID.TID 0000.0001) %MON exf_vstress_min              =  -5.6425848744554E-01
(PID.TID 0000.0001) %MON exf_vstress_mean             =   1.0662291895864E-02
(PID.TID 0000.0001) %MON exf_vstress_sd               =   1.0164680083088E-01
(PID.TID 0000.0001) %MON exf_vstress_del2             =   2.6909048814635E-07
(PID.TID 0000.0001) %MON exf_hflux_max                =   1.1474269543043E+03
(PID.TID 0000.0001) %MON exf_hflux_min                =  -2.7313581216368E+02
(PID.TID 0000.0001) %MON exf_hflux_mean               =   2.4162157624172E+02
(PID.TID 0000.0001) %MON exf_hflux_sd                 =   1.4124441453160E+02
(PID.TID 0000.0001) %MON exf_hflux_del2               =   6.3043312363672E-02
(PID.TID 0000.0001) %MON exf_sflux_max                =   2.5850177172083E-07
(PID.TID 0000.0001) %MON exf_sflux_min                =  -1.3964490566431E-06
(PID.TID 0000.0001) %MON exf_sflux_mean               =   1.5193067738639E-08
(PID.TID 0000.0001) %MON exf_sflux_sd                 =   1.1564757751509E-07
(PID.TID 0000.0001) %MON exf_sflux_del2               =   2.7488814200193E-11
(PID.TID 0000.0001) %MON exf_uwind_max                =   1.9561407737404E+01
(PID.TID 0000.0001) %MON exf_uwind_min                =  -1.4997935938932E+01
(PID.TID 0000.0001) %MON exf_uwind_mean               =   2.4719777316930E+00
(PID.TID 0000.0001) %MON exf_uwind_sd                 =   6.6727698459987E+00
(PID.TID 0000.0001) %MON exf_uwind_del2               =   1.5840884879104E-03
(PID.TID 0000.0001) %MON exf_vwind_max                =   1.4395236943622E+01
(PID.TID 0000.0001) %MON exf_vwind_min                =  -1.2782352146273E+01
(PID.TID 0000.0001) %MON exf_vwind_mean               =   8.5340039262420E-01
(PID.TID 0000.0001) %MON exf_vwind_sd                 =   5.1894399977376E+00
(PID.TID 0000.0001) %MON exf_vwind_del2               =   1.1740952002939E-03
(PID.TID 0000.0001) %MON exf_wspeed_max               =   2.0401365745853E+01
(PID.TID 0000.0001) %MON exf_wspeed_min               =   7.9635158445818E-03
(PID.TID 0000.0001) %MON exf_wspeed_mean              =   7.7224722800535E+00
(PID.TID 0000.0001) %MON exf_wspeed_sd                =   4.3195523990004E+00
(PID.TID 0000.0001) %MON exf_wspeed_del2              =   1.9715790607333E-03
(PID.TID 0000.0001) %MON exf_atemp_max                =   2.9816684107481E+02
(PID.TID 0000.0001) %MON exf_atemp_min                =   2.7442376141193E+02
(PID.TID 0000.0001) %MON exf_atemp_mean               =   2.9068654073506E+02
(PID.TID 0000.0001) %MON exf_atemp_sd                 =   3.9434618242705E+00
(PID.TID 0000.0001) %MON exf_atemp_del2               =   3.8841041752080E-03
(PID.TID 0000.0001) %MON exf_aqh_max                  =   1.6787539069316E-02
(PID.TID 0000.0001) %MON exf_aqh_min                  =   2.7285905449352E-03
(PID.TID 0000.0001) %MON exf_aqh_mean                 =   9.4228317380935E-03
(PID.TID 0000.0001) %MON exf_aqh_sd                   =   2.8724954271144E-03
(PID.TID 0000.0001) %MON exf_aqh_del2                 =   2.1268515031827E-06
(PID.TID 0000.0001) %MON exf_lwflux_max               =   1.5058635493819E+02
(PID.TID 0000.0001) %MON exf_lwflux_min               =   7.2576136409902E+00
(PID.TID 0000.0001) %MON exf_lwflux_mean              =   6.7368439108101E+01
(PID.TID 0000.0001) %MON exf_lwflux_sd                =   2.3459851690448E+01
(PID.TID 0000.0001) %MON exf_lwflux_del2              =   1.5610446266855E-02
(PID.TID 0000.0001) %MON exf_evap_max                 =   2.7489574963128E-07
(PID.TID 0000.0001) %MON exf_evap_min                 =  -9.3330750067078E-08
(PID.TID 0000.0001) %MON exf_evap_mean                =   5.9327091815156E-08
(PID.TID 0000.0001) %MON exf_evap_sd                  =   4.2097103644189E-08
(PID.TID 0000.0001) %MON exf_evap_del2                =   1.6365056356648E-11
(PID.TID 0000.0001) %MON exf_precip_max               =   1.5707758669712E-06
(PID.TID 0000.0001) %MON exf_precip_min               =   0.0000000000000E+00
(PID.TID 0000.0001) %MON exf_precip_mean              =   4.2545544504526E-08
(PID.TID 0000.0001) %MON exf_precip_sd                =   1.1790920676121E-07
(PID.TID 0000.0001) %MON exf_precip_del2              =   2.9781980061447E-11
(PID.TID 0000.0001) %MON exf_swflux_max               =   0.0000000000000E+00
(PID.TID 0000.0001) %MON exf_swflux_min               =   0.0000000000000E+00
(PID.TID 0000.0001) %MON exf_swflux_mean              =   0.0000000000000E+00
(PID.TID 0000.0001) %MON exf_swflux_sd                =   0.0000000000000E+00
(PID.TID 0000.0001) %MON exf_swflux_del2              =   0.0000000000000E+00
(PID.TID 0000.0001) %MON exf_swdown_max               =   0.0000000000000E+00
(PID.TID 0000.0001) %MON exf_swdown_min               =   0.0000000000000E+00
(PID.TID 0000.0001) %MON exf_swdown_mean              =   0.0000000000000E+00
(PID.TID 0000.0001) %MON exf_swdown_sd                =   0.0000000000000E+00
(PID.TID 0000.0001) %MON exf_swdown_del2              =   0.0000000000000E+00
(PID.TID 0000.0001) %MON exf_lwdown_max               =   4.0522099566563E+02
(PID.TID 0000.0001) %MON exf_lwdown_min               =   2.2767373335274E+02
(PID.TID 0000.0001) %MON exf_lwdown_mean              =   3.4763002725977E+02
(PID.TID 0000.0001) %MON exf_lwdown_sd                =   2.8649236487088E+01
(PID.TID 0000.0001) %MON exf_lwdown_del2              =   7.6169591607192E-02
(PID.TID 0000.0001) %MON exf_apressure_max            =   1.0279296101068E+05
(PID.TID 0000.0001) %MON exf_apressure_min            =   9.9998241531020E+04
(PID.TID 0000.0001) %MON exf_apressure_mean           =   1.0216296533085E+05
(PID.TID 0000.0001) %MON exf_apressure_sd             =   4.9937521697955E+02
(PID.TID 0000.0001) %MON exf_apressure_del2           =   2.2356502026794E+01
(PID.TID 0000.0001) %MON exf_runoff_max               =   4.4374798712073E-08
(PID.TID 0000.0001) %MON exf_runoff_min               =   0.0000000000000E+00
(PID.TID 0000.0001) %MON exf_runoff_mean              =   1.5884795719908E-09
(PID.TID 0000.0001) %MON exf_runoff_sd                =   5.3901959599983E-09
(PID.TID 0000.0001) %MON exf_runoff_del2              =   1.2741189756369E-12
(PID.TID 0000.0001) // =======================================================
(PID.TID 0000.0001) // End MONITOR EXF statistics
(PID.TID 0000.0001) // =======================================================
 cg2d: Sum(rhs),rhsMax =   5.26202007567546E+02  4.81880890646166E-02
(PID.TID 0000.0001)      cg2d_init_res =   1.61354274794540E+00
(PID.TID 0000.0001)      cg2d_iters(min,last) =      -1     316
(PID.TID 0000.0001)      cg2d_last_res =   6.43543755886036E-12
(PID.TID 0000.0001) // =======================================================
(PID.TID 0000.0001) // Begin MONITOR dynamic field statistics
(PID.TID 0000.0001) // =======================================================
(PID.TID 0000.0001) %MON time_tsnumber                =                     6
(PID.TID 0000.0001) %MON time_secondsf                =   1.4400000000000E+03
(PID.TID 0000.0001) %MON dynstat_eta_max              =   1.0420619189578E+00
(PID.TID 0000.0001) %MON dynstat_eta_min              =  -1.3363228714305E+00
(PID.TID 0000.0001) %MON dynstat_eta_mean             =  -1.7894604867620E-02
(PID.TID 0000.0001) %MON dynstat_eta_sd               =   1.8780303300649E-01
(PID.TID 0000.0001) %MON dynstat_eta_del2             =   2.3862028220276E-06
(PID.TID 0000.0001) %MON dynstat_uvel_max             =   1.2994272870740E+00
(PID.TID 0000.0001) %MON dynstat_uvel_min             =  -8.0033791617692E-01
(PID.TID 0000.0001) %MON dynstat_uvel_mean            =   3.1158072525617E-03
(PID.TID 0000.0001) %MON dynstat_uvel_sd              =   5.2388686851908E-02
(PID.TID 0000.0001) %MON dynstat_uvel_del2            =   4.7451665200831E-07
(PID.TID 0000.0001) %MON dynstat_vvel_max             =   2.1788666012208E+00
(PID.TID 0000.0001) %MON dynstat_vvel_min             =  -9.0982713732960E-01
(PID.TID 0000.0001) %MON dynstat_vvel_mean            =  -2.7454647431818E-03
(PID.TID 0000.0001) %MON dynstat_vvel_sd              =   4.8545859407238E-02
(PID.TID 0000.0001) %MON dynstat_vvel_del2            =   4.3376285650180E-07
(PID.TID 0000.0001) %MON dynstat_wvel_max             =   3.6521500182817E-02
(PID.TID 0000.0001) %MON dynstat_wvel_min             =  -3.0053053397373E-02
(PID.TID 0000.0001) %MON dynstat_wvel_mean            =  -9.1596774144785E-06
(PID.TID 0000.0001) %MON dynstat_wvel_sd              =   5.8738427681572E-04
(PID.TID 0000.0001) %MON dynstat_wvel_del2            =   7.6890640682271E-08
(PID.TID 0000.0001) %MON dynstat_theta_max            =   2.6140015534505E+01
(PID.TID 0000.0001) %MON dynstat_theta_min            =   1.4688641783950E+00
(PID.TID 0000.0001) %MON dynstat_theta_mean           =   5.5098442055425E+00
(PID.TID 0000.0001) %MON dynstat_theta_sd             =   4.7733783949095E+00
(PID.TID 0000.0001) %MON dynstat_theta_del2           =   4.0124878491671E-06
(PID.TID 0000.0001) %MON dynstat_salt_max             =   3.9173654110118E+01
(PID.TID 0000.0001) %MON dynstat_salt_min             =   3.3093476382689E+01
(PID.TID 0000.0001) %MON dynstat_salt_mean            =   3.5173367170701E+01
(PID.TID 0000.0001) %MON dynstat_salt_sd              =   3.7891067115902E-01
(PID.TID 0000.0001) %MON dynstat_salt_del2            =   5.0643051328914E-07
(PID.TID 0000.0001) %MON dynstat_sst_max              =   2.6136819166297E+01
(PID.TID 0000.0001) %MON dynstat_sst_min              =   4.0063225717289E+00
(PID.TID 0000.0001) %MON dynstat_sst_mean             =   1.9641398458388E+01
(PID.TID 0000.0001) %MON dynstat_sst_sd               =   3.6389386839906E+00
(PID.TID 0000.0001) %MON dynstat_sst_del2             =   1.9082036798450E-05
(PID.TID 0000.0001) %MON dynstat_sss_max              =   3.7335740259478E+01
(PID.TID 0000.0001) %MON dynstat_sss_min              =   3.3093476382689E+01
(PID.TID 0000.0001) %MON dynstat_sss_mean             =   3.5868188161977E+01
(PID.TID 0000.0001) %MON dynstat_sss_sd               =   4.8719199640934E-01
(PID.TID 0000.0001) %MON dynstat_sss_del2             =   4.9628739489749E-06
(PID.TID 0000.0001) %MON forcing_qnet_max             =   1.1647597948350E+03
(PID.TID 0000.0001) %MON forcing_qnet_min             =  -2.7811602851566E+02
(PID.TID 0000.0001) %MON forcing_qnet_mean            =   2.4355756185481E+02
(PID.TID 0000.0001) %MON forcing_qnet_sd              =   1.4340792560996E+02
(PID.TID 0000.0001) %MON forcing_qnet_del2            =   1.6767078602943E-03
(PID.TID 0000.0001) %MON forcing_qsw_max              =   0.0000000000000E+00
(PID.TID 0000.0001) %MON forcing_qsw_min              =   0.0000000000000E+00
(PID.TID 0000.0001) %MON forcing_qsw_mean             =   0.0000000000000E+00
(PID.TID 0000.0001) %MON forcing_qsw_sd               =   0.0000000000000E+00
(PID.TID 0000.0001) %MON forcing_qsw_del2             =   0.0000000000000E+00
(PID.TID 0000.0001) %MON forcing_empmr_max            =   2.5850177172083E-04
(PID.TID 0000.0001) %MON forcing_empmr_min            =  -1.3964490566431E-03
(PID.TID 0000.0001) %MON forcing_empmr_mean           =   1.5193067738639E-05
(PID.TID 0000.0001) %MON forcing_empmr_sd             =   1.1564757751509E-04
(PID.TID 0000.0001) %MON forcing_empmr_del2           =   2.9486406184569E-09
(PID.TID 0000.0001) %MON forcing_fu_max               =   8.3265835831498E-01
(PID.TID 0000.0001) %MON forcing_fu_min               =  -4.1637248122884E-01
(PID.TID 0000.0001) %MON forcing_fu_mean              =   6.3036554630651E-02
(PID.TID 0000.0001) %MON forcing_fu_sd                =   1.5524985127213E-01
(PID.TID 0000.0001) %MON forcing_fu_del2              =   3.4391602933151E-07
(PID.TID 0000.0001) %MON forcing_fv_max               =   3.9284808983197E-01
(PID.TID 0000.0001) %MON forcing_fv_min               =  -5.6749198977369E-01
(PID.TID 0000.0001) %MON forcing_fv_mean              =   1.0642677728844E-02
(PID.TID 0000.0001) %MON forcing_fv_sd                =   1.0177757234677E-01
(PID.TID 0000.0001) %MON forcing_fv_del2              =   2.4857882959205E-07
(PID.TID 0000.0001) %MON trAdv_CFL_u_max              =   7.8837244830304E-02
(PID.TID 0000.0001) %MON trAdv_CFL_v_max              =   1.3766821990164E-01
(PID.TID 0000.0001) %MON trAdv_CFL_w_max              =   4.8640169471046E-01
(PID.TID 0000.0001) %MON advcfl_uvel_max              =   7.8837243756863E-02
(PID.TID 0000.0001) %MON advcfl_vvel_max              =   1.3770827603764E-01
(PID.TID 0000.0001) %MON advcfl_wvel_max              =   4.8263113893751E-01
(PID.TID 0000.0001) %MON advcfl_W_hf_max              =   4.8640169471046E-01
(PID.TID 0000.0001) %MON pe_b_mean                    =  -3.9008777692088E-04
(PID.TID 0000.0001) %MON ke_max                       =   2.1662428588815E+00
(PID.TID 0000.0001) %MON ke_mean                      =   2.5403377679536E-03
(PID.TID 0000.0001) %MON ke_vol                       =   4.5818637279720E+16
(PID.TID 0000.0001) %MON vort_r_min                   =  -5.0733907881932E-04
(PID.TID 0000.0001) %MON vort_r_max                   =   5.4586698327188E-04
(PID.TID 0000.0001) %MON vort_a_mean                  =   8.2147627054294E-05
(PID.TID 0000.0001) %MON vort_a_sd                    =   1.0128232559571E-05
(PID.TID 0000.0001) %MON vort_p_mean                  =   8.4848848493829E-05
(PID.TID 0000.0001) %MON vort_p_sd                    =   3.4971421256864E-05
(PID.TID 0000.0001) %MON surfExpan_theta_mean         =  -1.3638275710189E-04
(PID.TID 0000.0001) %MON surfExpan_salt_mean          =  -6.0026281626487E-04
(PID.TID 0000.0001) // =======================================================
(PID.TID 0000.0001) // End MONITOR dynamic field statistics
(PID.TID 0000.0001) // =======================================================
(PID.TID 0000.0001) // =======================================================
(PID.TID 0000.0001) // Begin OBCS MONITOR field statistics
(PID.TID 0000.0001) // =======================================================
(PID.TID 0000.0001) %MON obc_N_vVel_max               =   6.9533062238007E-01
(PID.TID 0000.0001) %MON obc_N_vVel_min               =  -3.2259805496536E-01
(PID.TID 0000.0001) %MON obc_N_vVel_mean              =   1.3537174950139E-02
(PID.TID 0000.0001) %MON obc_N_vVel_sd                =   6.4669900488856E-02
(PID.TID 0000.0001) %MON obc_N_vVel_Int               =   1.9378580279720E+08
(PID.TID 0000.0001) %MON obc_S_vVel_max               =   2.1788666012208E+00
(PID.TID 0000.0001) %MON obc_S_vVel_min               =  -2.6256909347755E-01
(PID.TID 0000.0001) %MON obc_S_vVel_mean              =  -7.1067361303625E-05
(PID.TID 0000.0001) %MON obc_S_vVel_sd                =   3.5965892379268E-02
(PID.TID 0000.0001) %MON obc_S_vVel_Int               =  -2.1634965501856E+06
(PID.TID 0000.0001) %MON obc_N_theta_max              =   1.6390332432041E+01
(PID.TID 0000.0001) %MON obc_N_theta_min              =   1.8895910213779E+00
(PID.TID 0000.0001) %MON obc_N_theta_mean             =   5.1589361969886E+00
(PID.TID 0000.0001) %MON obc_N_theta_sd               =   3.4826781859977E+00
(PID.TID 0000.0001) %MON obc_S_theta_max              =   2.5544324816130E+01
(PID.TID 0000.0001) %MON obc_S_theta_min              =   1.4632980186102E+00
(PID.TID 0000.0001) %MON obc_S_theta_mean             =   5.4595529500639E+00
(PID.TID 0000.0001) %MON obc_S_theta_sd               =   5.3559138080854E+00
(PID.TID 0000.0001) %MON obc_N_salt_max               =   3.5910865197779E+01
(PID.TID 0000.0001) %MON obc_N_salt_min               =   3.3295047085845E+01
(PID.TID 0000.0001) %MON obc_N_salt_mean              =   3.5114562540430E+01
(PID.TID 0000.0001) %MON obc_N_salt_sd                =   3.0984861318096E-01
(PID.TID 0000.0001) %MON obc_S_salt_max               =   3.7318305324317E+01
(PID.TID 0000.0001) %MON obc_S_salt_min               =   3.4844694627139E+01
(PID.TID 0000.0001) %MON obc_S_salt_mean              =   3.5168372507334E+01
(PID.TID 0000.0001) %MON obc_S_salt_sd                =   4.5716900135870E-01
(PID.TID 0000.0001) // =======================================================
(PID.TID 0000.0001) // End OBCS MONITOR field statistics
(PID.TID 0000.0001) // =======================================================
(PID.TID 0000.0001) // =======================================================
(PID.TID 0000.0001) // Begin MONITOR EXF statistics
(PID.TID 0000.0001) // =======================================================
(PID.TID 0000.0001) %MON exf_tsnumber                 =                     6
(PID.TID 0000.0001) %MON exf_time_sec                 =   1.4400000000000E+03
(PID.TID 0000.0001) %MON exf_ustress_max              =   8.3231554184569E-01
(PID.TID 0000.0001) %MON exf_ustress_min              =  -4.1349179322649E-01
(PID.TID 0000.0001) %MON exf_ustress_mean             =   6.3025861072077E-02
(PID.TID 0000.0001) %MON exf_ustress_sd               =   1.5500067718505E-01
(PID.TID 0000.0001) %MON exf_ustress_del2             =   3.8057736901576E-07
(PID.TID 0000.0001) %MON exf_vstress_max              =   3.9161750266679E-01
(PID.TID 0000.0001) %MON exf_vstress_min              =  -5.6326445365786E-01
(PID.TID 0000.0001) %MON exf_vstress_mean             =   1.0686795255007E-02
(PID.TID 0000.0001) %MON exf_vstress_sd               =   1.0148919349263E-01
(PID.TID 0000.0001) %MON exf_vstress_del2             =   2.6502138134338E-07
(PID.TID 0000.0001) %MON exf_hflux_max                =   1.1510865913532E+03
(PID.TID 0000.0001) %MON exf_hflux_min                =  -2.7784091257526E+02
(PID.TID 0000.0001) %MON exf_hflux_mean               =   2.4077418031337E+02
(PID.TID 0000.0001) %MON exf_hflux_sd                 =   1.4076899229543E+02
(PID.TID 0000.0001) %MON exf_hflux_del2               =   6.2820955812842E-02
(PID.TID 0000.0001) %MON exf_sflux_max                =   2.5770222050450E-07
(PID.TID 0000.0001) %MON exf_sflux_min                =  -1.5214569221990E-06
(PID.TID 0000.0001) %MON exf_sflux_mean               =   1.6086597783265E-08
(PID.TID 0000.0001) %MON exf_sflux_sd                 =   1.2268386565841E-07
(PID.TID 0000.0001) %MON exf_sflux_del2               =   2.9321414132459E-11
(PID.TID 0000.0001) %MON exf_uwind_max                =   1.9558348202805E+01
(PID.TID 0000.0001) %MON exf_uwind_min                =  -1.4964401276441E+01
(PID.TID 0000.0001) %MON exf_uwind_mean               =   2.4736843517148E+00
(PID.TID 0000.0001) %MON exf_uwind_sd                 =   6.6699217227515E+00
(PID.TID 0000.0001) %MON exf_uwind_del2               =   1.5842583511491E-03
(PID.TID 0000.0001) %MON exf_vwind_max                =   1.4374657376368E+01
(PID.TID 0000.0001) %MON exf_vwind_min                =  -1.2776257716847E+01
(PID.TID 0000.0001) %MON exf_vwind_mean               =   8.5515564033343E-01
(PID.TID 0000.0001) %MON exf_vwind_sd                 =   5.1837142769313E+00
(PID.TID 0000.0001) %MON exf_vwind_del2               =   1.1724600576616E-03
(PID.TID 0000.0001) %MON exf_wspeed_max               =   2.0362498449658E+01
(PID.TID 0000.0001) %MON exf_wspeed_min               =   1.2725999631281E-02
(PID.TID 0000.0001) %MON exf_wspeed_mean              =   7.7175969035688E+00
(PID.TID 0000.0001) %MON exf_wspeed_sd                =   4.3183159874690E+00
(PID.TID 0000.0001) %MON exf_wspeed_del2              =   1.9707475570373E-03
(PID.TID 0000.0001) %MON exf_atemp_max                =   2.9816464374613E+02
(PID.TID 0000.0001) %MON exf_atemp_min                =   2.7439816006509E+02
(PID.TID 0000.0001) %MON exf_atemp_mean               =   2.9068341952916E+02
(PID.TID 0000.0001) %MON exf_atemp_sd                 =   3.9434956306238E+00
(PID.TID 0000.0001) %MON exf_atemp_del2               =   3.8834607977409E-03
(PID.TID 0000.0001) %MON exf_aqh_max                  =   1.6780552818986E-02
(PID.TID 0000.0001) %MON exf_aqh_min                  =   2.7262958355709E-03
(PID.TID 0000.0001) %MON exf_aqh_mean                 =   9.4216435852470E-03
(PID.TID 0000.0001) %MON exf_aqh_sd                   =   2.8726800760210E-03
(PID.TID 0000.0001) %MON exf_aqh_del2                 =   2.1264795440286E-06
(PID.TID 0000.0001) %MON exf_lwflux_max               =   1.5056902275410E+02
(PID.TID 0000.0001) %MON exf_lwflux_min               =   3.2740052832172E+00
(PID.TID 0000.0001) %MON exf_lwflux_mean              =   6.6592614064591E+01
(PID.TID 0000.0001) %MON exf_lwflux_sd                =   2.4690403574571E+01
(PID.TID 0000.0001) %MON exf_lwflux_del2              =   1.5541309657660E-02
(PID.TID 0000.0001) %MON exf_evap_max                 =   2.7644075120564E-07
(PID.TID 0000.0001) %MON exf_evap_min                 =  -9.4057585003192E-08
(PID.TID 0000.0001) %MON exf_evap_mean                =   5.9296755941394E-08
(PID.TID 0000.0001) %MON exf_evap_sd                  =   4.2063296803039E-08
(PID.TID 0000.0001) %MON exf_evap_del2                =   1.6359838916146E-11
(PID.TID 0000.0001) %MON exf_precip_max               =   1.6964379363289E-06
(PID.TID 0000.0001) %MON exf_precip_min               =   0.0000000000000E+00
(PID.TID 0000.0001) %MON exf_precip_mean              =   4.1621678586138E-08
(PID.TID 0000.0001) %MON exf_precip_sd                =   1.2611995652867E-07
(PID.TID 0000.0001) %MON exf_precip_del2              =   3.1667810420937E-11
(PID.TID 0000.0001) %MON exf_swflux_max               =   0.0000000000000E+00
(PID.TID 0000.0001) %MON exf_swflux_min               =   0.0000000000000E+00
(PID.TID 0000.0001) %MON exf_swflux_mean              =   0.0000000000000E+00
(PID.TID 0000.0001) %MON exf_swflux_sd                =   0.0000000000000E+00
(PID.TID 0000.0001) %MON exf_swflux_del2              =   0.0000000000000E+00
(PID.TID 0000.0001) %MON exf_swdown_max               =   0.0000000000000E+00
(PID.TID 0000.0001) %MON exf_swdown_min               =   0.0000000000000E+00
(PID.TID 0000.0001) %MON exf_swdown_mean              =   0.0000000000000E+00
(PID.TID 0000.0001) %MON exf_swdown_sd                =   0.0000000000000E+00
(PID.TID 0000.0001) %MON exf_swdown_del2              =   0.0000000000000E+00
(PID.TID 0000.0001) %MON exf_lwdown_max               =   4.0922404910710E+02
(PID.TID 0000.0001) %MON exf_lwdown_min               =   2.2687894850113E+02
(PID.TID 0000.0001) %MON exf_lwdown_mean              =   3.4842408112934E+02
(PID.TID 0000.0001) %MON exf_lwdown_sd                =   2.9896532754363E+01
(PID.TID 0000.0001) %MON exf_lwdown_del2              =   7.6374674507903E-02
(PID.TID 0000.0001) %MON exf_apressure_max            =   1.0279447204508E+05
(PID.TID 0000.0001) %MON exf_apressure_min            =   1.0000228419081E+05
(PID.TID 0000.0001) %MON exf_apressure_mean           =   1.0216374263719E+05
(PID.TID 0000.0001) %MON exf_apressure_sd             =   4.9917253544505E+02
(PID.TID 0000.0001) %MON exf_apressure_del2           =   2.2356689540569E+01
(PID.TID 0000.0001) %MON exf_runoff_max               =   4.4374798712073E-08
(PID.TID 0000.0001) %MON exf_runoff_min               =   0.0000000000000E+00
(PID.TID 0000.0001) %MON exf_runoff_mean              =   1.5884795719908E-09
(PID.TID 0000.0001) %MON exf_runoff_sd                =   5.3901959599983E-09
(PID.TID 0000.0001) %MON exf_runoff_del2              =   1.2741189756369E-12
(PID.TID 0000.0001) // =======================================================
(PID.TID 0000.0001) // End MONITOR EXF statistics
(PID.TID 0000.0001) // =======================================================
 cg2d: Sum(rhs),rhsMax =   6.62121604486757E+02  5.72699217959709E-02
(PID.TID 0000.0001)      cg2d_init_res =   1.48075489041995E+00
(PID.TID 0000.0001)      cg2d_iters(min,last) =      -1     315
(PID.TID 0000.0001)      cg2d_last_res =   6.81384663284606E-12
(PID.TID 0000.0001) // =======================================================
(PID.TID 0000.0001) // Begin MONITOR dynamic field statistics
(PID.TID 0000.0001) // =======================================================
(PID.TID 0000.0001) %MON time_tsnumber                =                     7
(PID.TID 0000.0001) %MON time_secondsf                =   1.6800000000000E+03
(PID.TID 0000.0001) %MON dynstat_eta_max              =   1.0214638152697E+00
(PID.TID 0000.0001) %MON dynstat_eta_min              =  -1.2370549886289E+00
(PID.TID 0000.0001) %MON dynstat_eta_mean             =  -2.2516836340812E-02
(PID.TID 0000.0001) %MON dynstat_eta_sd               =   2.0279752205027E-01
(PID.TID 0000.0001) %MON dynstat_eta_del2             =   2.4129341253084E-06
(PID.TID 0000.0001) %MON dynstat_uvel_max             =   1.2999355747381E+00
(PID.TID 0000.0001) %MON dynstat_uvel_min             =  -7.0950112279960E-01
(PID.TID 0000.0001) %MON dynstat_uvel_mean            =   2.8960711754078E-03
(PID.TID 0000.0001) %MON dynstat_uvel_sd              =   5.2363868056600E-02
(PID.TID 0000.0001) %MON dynstat_uvel_del2            =   4.8239431435193E-07
(PID.TID 0000.0001) %MON dynstat_vvel_max             =   2.2418623661086E+00
(PID.TID 0000.0001) %MON dynstat_vvel_min             =  -9.1279556990601E-01
(PID.TID 0000.0001) %MON dynstat_vvel_mean            =  -3.0709802225218E-03
(PID.TID 0000.0001) %MON dynstat_vvel_sd              =   4.8701224679659E-02
(PID.TID 0000.0001) %MON dynstat_vvel_del2            =   4.4152595728438E-07
(PID.TID 0000.0001) %MON dynstat_wvel_max             =   3.6070933949234E-02
(PID.TID 0000.0001) %MON dynstat_wvel_min             =  -2.9015698369482E-02
(PID.TID 0000.0001) %MON dynstat_wvel_mean            =  -1.0345911775194E-05
(PID.TID 0000.0001) %MON dynstat_wvel_sd              =   5.8956137306494E-04
(PID.TID 0000.0001) %MON dynstat_wvel_del2            =   7.4969024278928E-08
(PID.TID 0000.0001) %MON dynstat_theta_max            =   2.6139699696944E+01
(PID.TID 0000.0001) %MON dynstat_theta_min            =   1.4688643051301E+00
(PID.TID 0000.0001) %MON dynstat_theta_mean           =   5.5098442150969E+00
(PID.TID 0000.0001) %MON dynstat_theta_sd             =   4.7733607559846E+00
(PID.TID 0000.0001) %MON dynstat_theta_del2           =   4.0162733467268E-06
(PID.TID 0000.0001) %MON dynstat_salt_max             =   3.9170611497127E+01
(PID.TID 0000.0001) %MON dynstat_salt_min             =   3.3094300022400E+01
(PID.TID 0000.0001) %MON dynstat_salt_mean            =   3.5173366586440E+01
(PID.TID 0000.0001) %MON dynstat_salt_sd              =   3.7891076582315E-01
(PID.TID 0000.0001) %MON dynstat_salt_del2            =   5.1017448600585E-07
(PID.TID 0000.0001) %MON dynstat_sst_max              =   2.6136727816289E+01
(PID.TID 0000.0001) %MON dynstat_sst_min              =   3.9922111031656E+00
(PID.TID 0000.0001) %MON dynstat_sst_mean             =   1.9640471248013E+01
(PID.TID 0000.0001) %MON dynstat_sst_sd               =   3.6389807000918E+00
(PID.TID 0000.0001) %MON dynstat_sst_del2             =   1.9095137960923E-05
(PID.TID 0000.0001) %MON dynstat_sss_max              =   3.7335822868352E+01
(PID.TID 0000.0001) %MON dynstat_sss_min              =   3.3094300022400E+01
(PID.TID 0000.0001) %MON dynstat_sss_mean             =   3.5868226127097E+01
(PID.TID 0000.0001) %MON dynstat_sss_sd               =   4.8719243168650E-01
(PID.TID 0000.0001) %MON dynstat_sss_del2             =   4.9538878665559E-06
(PID.TID 0000.0001) %MON forcing_qnet_max             =   1.1685193615838E+03
(PID.TID 0000.0001) %MON forcing_qnet_min             =  -2.8274247914199E+02
(PID.TID 0000.0001) %MON forcing_qnet_mean            =   2.4279131948362E+02
(PID.TID 0000.0001) %MON forcing_qnet_sd              =   1.4276001977369E+02
(PID.TID 0000.0001) %MON forcing_qnet_del2            =   1.6734688858354E-03
(PID.TID 0000.0001) %MON forcing_qsw_max              =   0.0000000000000E+00
(PID.TID 0000.0001) %MON forcing_qsw_min              =   0.0000000000000E+00
(PID.TID 0000.0001) %MON forcing_qsw_mean             =   0.0000000000000E+00
(PID.TID 0000.0001) %MON forcing_qsw_sd               =   0.0000000000000E+00
(PID.TID 0000.0001) %MON forcing_qsw_del2             =   0.0000000000000E+00
(PID.TID 0000.0001) %MON forcing_empmr_max            =   2.5770222050450E-04
(PID.TID 0000.0001) %MON forcing_empmr_min            =  -1.5214569221990E-03
(PID.TID 0000.0001) %MON forcing_empmr_mean           =   1.6086597783265E-05
(PID.TID 0000.0001) %MON forcing_empmr_sd             =   1.2268386565841E-04
(PID.TID 0000.0001) %MON forcing_empmr_del2           =   3.1386735725713E-09
(PID.TID 0000.0001) %MON forcing_fu_max               =   8.3112845998696E-01
(PID.TID 0000.0001) %MON forcing_fu_min               =  -4.1343643775545E-01
(PID.TID 0000.0001) %MON forcing_fu_mean              =   6.3084213977912E-02
(PID.TID 0000.0001) %MON forcing_fu_sd                =   1.5506028898459E-01
(PID.TID 0000.0001) %MON forcing_fu_del2              =   3.3925286408529E-07
(PID.TID 0000.0001) %MON forcing_fv_max               =   3.9115624842848E-01
(PID.TID 0000.0001) %MON forcing_fv_min               =  -5.6669978601348E-01
(PID.TID 0000.0001) %MON forcing_fv_mean              =   1.0667474161182E-02
(PID.TID 0000.0001) %MON forcing_fv_sd                =   1.0162031695651E-01
(PID.TID 0000.0001) %MON forcing_fv_del2              =   2.4449337916494E-07
(PID.TID 0000.0001) %MON trAdv_CFL_u_max              =   7.8868083030650E-02
(PID.TID 0000.0001) %MON trAdv_CFL_v_max              =   1.4164850708792E-01
(PID.TID 0000.0001) %MON trAdv_CFL_w_max              =   5.2149208782659E-01
(PID.TID 0000.0001) %MON advcfl_uvel_max              =   7.8868081956790E-02
(PID.TID 0000.0001) %MON advcfl_vvel_max              =   1.4168972133379E-01
(PID.TID 0000.0001) %MON advcfl_wvel_max              =   5.1744951350235E-01
(PID.TID 0000.0001) %MON advcfl_W_hf_max              =   5.2149208782659E-01
(PID.TID 0000.0001) %MON pe_b_mean                    =  -4.9504596422171E-04
(PID.TID 0000.0001) %MON ke_max                       =   2.2935826012201E+00
(PID.TID 0000.0001) %MON ke_mean                      =   2.5468442397724E-03
(PID.TID 0000.0001) %MON ke_vol                       =   4.5818637279720E+16
(PID.TID 0000.0001) %MON vort_r_min                   =  -5.1174152135222E-04
(PID.TID 0000.0001) %MON vort_r_max                   =   5.6464325241775E-04
(PID.TID 0000.0001) %MON vort_a_mean                  =   8.2147626272995E-05
(PID.TID 0000.0001) %MON vort_a_sd                    =   1.0131276818351E-05
(PID.TID 0000.0001) %MON vort_p_mean                  =   8.4848847686840E-05
(PID.TID 0000.0001) %MON vort_p_sd                    =   3.4970909236370E-05
(PID.TID 0000.0001) %MON surfExpan_theta_mean         =  -1.7953870378973E-04
(PID.TID 0000.0001) %MON surfExpan_salt_mean          =  -6.7098604230311E-04
(PID.TID 0000.0001) // =======================================================
(PID.TID 0000.0001) // End MONITOR dynamic field statistics
(PID.TID 0000.0001) // =======================================================
(PID.TID 0000.0001) // =======================================================
(PID.TID 0000.0001) // Begin OBCS MONITOR field statistics
(PID.TID 0000.0001) // =======================================================
(PID.TID 0000.0001) %MON obc_N_vVel_max               =   6.9521236116019E-01
(PID.TID 0000.0001) %MON obc_N_vVel_min               =  -3.2280691227700E-01
(PID.TID 0000.0001) %MON obc_N_vVel_mean              =   1.3558519772720E-02
(PID.TID 0000.0001) %MON obc_N_vVel_sd                =   6.4657344949975E-02
(PID.TID 0000.0001) %MON obc_N_vVel_Int               =   1.9409135573529E+08
(PID.TID 0000.0001) %MON obc_S_vVel_max               =   2.2418623661086E+00
(PID.TID 0000.0001) %MON obc_S_vVel_min               =  -2.6267591393568E-01
(PID.TID 0000.0001) %MON obc_S_vVel_mean              =  -7.7413489822454E-04
(PID.TID 0000.0001) %MON obc_S_vVel_sd                =   3.6015630243837E-02
(PID.TID 0000.0001) %MON obc_S_vVel_Int               =  -2.3566911039958E+07
(PID.TID 0000.0001) %MON obc_N_theta_max              =   1.6390244329854E+01
(PID.TID 0000.0001) %MON obc_N_theta_min              =   1.8895910704432E+00
(PID.TID 0000.0001) %MON obc_N_theta_mean             =   5.1589288128385E+00
(PID.TID 0000.0001) %MON obc_N_theta_sd               =   3.4826688944174E+00
(PID.TID 0000.0001) %MON obc_S_theta_max              =   2.5544222067351E+01
(PID.TID 0000.0001) %MON obc_S_theta_min              =   1.4632984148975E+00
(PID.TID 0000.0001) %MON obc_S_theta_mean             =   5.4595521450393E+00
(PID.TID 0000.0001) %MON obc_S_theta_sd               =   5.3559099369382E+00
(PID.TID 0000.0001) %MON obc_N_salt_max               =   3.5910864789416E+01
(PID.TID 0000.0001) %MON obc_N_salt_min               =   3.3295052588478E+01
(PID.TID 0000.0001) %MON obc_N_salt_mean              =   3.5114562244443E+01
(PID.TID 0000.0001) %MON obc_N_salt_sd                =   3.0984849390781E-01
(PID.TID 0000.0001) %MON obc_S_salt_max               =   3.7318298439933E+01
(PID.TID 0000.0001) %MON obc_S_salt_min               =   3.4844694679359E+01
(PID.TID 0000.0001) %MON obc_S_salt_mean              =   3.5168372435418E+01
(PID.TID 0000.0001) %MON obc_S_salt_sd                =   4.5716865028953E-01
(PID.TID 0000.0001) // =======================================================
(PID.TID 0000.0001) // End OBCS MONITOR field statistics
(PID.TID 0000.0001) // =======================================================
(PID.TID 0000.0001) // =======================================================
(PID.TID 0000.0001) // Begin MONITOR EXF statistics
(PID.TID 0000.0001) // =======================================================
(PID.TID 0000.0001) %MON exf_tsnumber                 =                     7
(PID.TID 0000.0001) %MON exf_time_sec                 =   1.6800000000000E+03
(PID.TID 0000.0001) %MON exf_ustress_max              =   8.3374712877263E-01
(PID.TID 0000.0001) %MON exf_ustress_min              =  -4.1067725894886E-01
(PID.TID 0000.0001) %MON exf_ustress_mean             =   6.3099300796430E-02
(PID.TID 0000.0001) %MON exf_ustress_sd               =   1.5489153576719E-01
(PID.TID 0000.0001) %MON exf_ustress_del2             =   3.7879887697314E-07
(PID.TID 0000.0001) %MON exf_vstress_max              =   3.9086854461748E-01
(PID.TID 0000.0001) %MON exf_vstress_min              =  -5.6271915557240E-01
(PID.TID 0000.0001) %MON exf_vstress_mean             =   1.0722337986393E-02
(PID.TID 0000.0001) %MON exf_vstress_sd               =   1.0140774374832E-01
(PID.TID 0000.0001) %MON exf_vstress_del2             =   2.6479822587842E-07
(PID.TID 0000.0001) %MON exf_hflux_max                =   1.1549764481653E+03
(PID.TID 0000.0001) %MON exf_hflux_min                =  -2.8259310596881E+02
(PID.TID 0000.0001) %MON exf_hflux_mean               =   2.3995353914063E+02
(PID.TID 0000.0001) %MON exf_hflux_sd                 =   1.4037017767590E+02
(PID.TID 0000.0001) %MON exf_hflux_del2               =   6.2612701717557E-02
(PID.TID 0000.0001) %MON exf_sflux_max                =   2.5694748278224E-07
(PID.TID 0000.0001) %MON exf_sflux_min                =  -1.6464738848469E-06
(PID.TID 0000.0001) %MON exf_sflux_mean               =   1.6988678568731E-08
(PID.TID 0000.0001) %MON exf_sflux_sd                 =   1.3056310219374E-07
(PID.TID 0000.0001) %MON exf_sflux_del2               =   3.1329228281168E-11
(PID.TID 0000.0001) %MON exf_uwind_max                =   1.9546147352442E+01
(PID.TID 0000.0001) %MON exf_uwind_min                =  -1.4931455825151E+01
(PID.TID 0000.0001) %MON exf_uwind_mean               =   2.4754530163889E+00
(PID.TID 0000.0001) %MON exf_uwind_sd                 =   6.6679009016179E+00
(PID.TID 0000.0001) %MON exf_uwind_del2               =   1.5846047542447E-03
(PID.TID 0000.0001) %MON exf_vwind_max                =   1.4377473888044E+01
(PID.TID 0000.0001) %MON exf_vwind_min                =  -1.2774131985473E+01
(PID.TID 0000.0001) %MON exf_vwind_mean               =   8.5690838853080E-01
(PID.TID 0000.0001) %MON exf_vwind_sd                 =   5.1795704923447E+00
(PID.TID 0000.0001) %MON exf_vwind_del2               =   1.1711878374589E-03
(PID.TID 0000.0001) %MON exf_wspeed_max               =   2.0328453322498E+01
(PID.TID 0000.0001) %MON exf_wspeed_min               =   9.8530832799406E-03
(PID.TID 0000.0001) %MON exf_wspeed_mean              =   7.7139510015199E+00
(PID.TID 0000.0001) %MON exf_wspeed_sd                =   4.3180982489746E+00
(PID.TID 0000.0001) %MON exf_wspeed_del2              =   1.9702719094766E-03
(PID.TID 0000.0001) %MON exf_atemp_max                =   2.9816244641745E+02
(PID.TID 0000.0001) %MON exf_atemp_min                =   2.7437255871824E+02
(PID.TID 0000.0001) %MON exf_atemp_mean               =   2.9068029832326E+02
(PID.TID 0000.0001) %MON exf_atemp_sd                 =   3.9436719273732E+00
(PID.TID 0000.0001) %MON exf_atemp_del2               =   3.8828239985176E-03
(PID.TID 0000.0001) %MON exf_aqh_max                  =   1.6773566568656E-02
(PID.TID 0000.0001) %MON exf_aqh_min                  =   2.7240011262066E-03
(PID.TID 0000.0001) %MON exf_aqh_mean                 =   9.4204554324004E-03
(PID.TID 0000.0001) %MON exf_aqh_sd                   =   2.8730374965879E-03
(PID.TID 0000.0001) %MON exf_aqh_del2                 =   2.1261196972574E-06
(PID.TID 0000.0001) %MON exf_lwflux_max               =   1.5197373489746E+02
(PID.TID 0000.0001) %MON exf_lwflux_min               =  -3.7857088044259E+00
(PID.TID 0000.0001) %MON exf_lwflux_mean              =   6.5817267864205E+01
(PID.TID 0000.0001) %MON exf_lwflux_sd                =   2.6098603929791E+01
(PID.TID 0000.0001) %MON exf_lwflux_del2              =   1.5494238749240E-02
(PID.TID 0000.0001) %MON exf_evap_max                 =   2.7803065220761E-07
(PID.TID 0000.0001) %MON exf_evap_min                 =  -9.4797485712604E-08
(PID.TID 0000.0001) %MON exf_evap_mean                =   5.9274970808472E-08
(PID.TID 0000.0001) %MON exf_evap_sd                  =   4.2041957855374E-08
(PID.TID 0000.0001) %MON exf_evap_del2                =   1.6357818728770E-11
(PID.TID 0000.0001) %MON exf_precip_max               =   1.8221000056866E-06
(PID.TID 0000.0001) %MON exf_precip_min               =   0.0000000000000E+00
(PID.TID 0000.0001) %MON exf_precip_mean              =   4.0697812667750E-08
(PID.TID 0000.0001) %MON exf_precip_sd                =   1.3500755581447E-07
(PID.TID 0000.0001) %MON exf_precip_del2              =   3.3708891603153E-11
(PID.TID 0000.0001) %MON exf_swflux_max               =   0.0000000000000E+00
(PID.TID 0000.0001) %MON exf_swflux_min               =   0.0000000000000E+00
(PID.TID 0000.0001) %MON exf_swflux_mean              =   0.0000000000000E+00
(PID.TID 0000.0001) %MON exf_swflux_sd                =   0.0000000000000E+00
(PID.TID 0000.0001) %MON exf_swflux_del2              =   0.0000000000000E+00
(PID.TID 0000.0001) %MON exf_swdown_max               =   0.0000000000000E+00
(PID.TID 0000.0001) %MON exf_swdown_min               =   0.0000000000000E+00
(PID.TID 0000.0001) %MON exf_swdown_mean              =   0.0000000000000E+00
(PID.TID 0000.0001) %MON exf_swdown_sd                =   0.0000000000000E+00
(PID.TID 0000.0001) %MON exf_swdown_del2              =   0.0000000000000E+00
(PID.TID 0000.0001) %MON exf_lwdown_max               =   4.1505414476579E+02
(PID.TID 0000.0001) %MON exf_lwdown_min               =   2.2448605534577E+02
(PID.TID 0000.0001) %MON exf_lwdown_mean              =   3.4921813499891E+02
(PID.TID 0000.0001) %MON exf_lwdown_sd                =   3.1302829194029E+01
(PID.TID 0000.0001) %MON exf_lwdown_del2              =   7.6583988709397E-02
(PID.TID 0000.0001) %MON exf_apressure_max            =   1.0279678233353E+05
(PID.TID 0000.0001) %MON exf_apressure_min            =   1.0000622433890E+05
(PID.TID 0000.0001) %MON exf_apressure_mean           =   1.0216451994353E+05
(PID.TID 0000.0001) %MON exf_apressure_sd             =   4.9900957817301E+02
(PID.TID 0000.0001) %MON exf_apressure_del2           =   2.2356877097480E+01
(PID.TID 0000.0001) %MON exf_runoff_max               =   4.4374798712073E-08
(PID.TID 0000.0001) %MON exf_runoff_min               =   0.0000000000000E+00
(PID.TID 0000.0001) %MON exf_runoff_mean              =   1.5884795719908E-09
(PID.TID 0000.0001) %MON exf_runoff_sd                =   5.3901959599983E-09
(PID.TID 0000.0001) %MON exf_runoff_del2              =   1.2741189756369E-12
(PID.TID 0000.0001) // =======================================================
(PID.TID 0000.0001) // End MONITOR EXF statistics
(PID.TID 0000.0001) // =======================================================
 cg2d: Sum(rhs),rhsMax =   8.11432175923068E+02  6.48560762090363E-02
(PID.TID 0000.0001)      cg2d_init_res =   1.50165903045631E+00
(PID.TID 0000.0001)      cg2d_iters(min,last) =      -1     315
(PID.TID 0000.0001)      cg2d_last_res =   6.52491798064592E-12
(PID.TID 0000.0001) // =======================================================
(PID.TID 0000.0001) // Begin MONITOR dynamic field statistics
(PID.TID 0000.0001) // =======================================================
(PID.TID 0000.0001) %MON time_tsnumber                =                     8
(PID.TID 0000.0001) %MON time_secondsf                =   1.9200000000000E+03
(PID.TID 0000.0001) %MON dynstat_eta_max              =   1.0034583233726E+00
(PID.TID 0000.0001) %MON dynstat_eta_min              =  -1.2662731870978E+00
(PID.TID 0000.0001) %MON dynstat_eta_mean             =  -2.7594456038165E-02
(PID.TID 0000.0001) %MON dynstat_eta_sd               =   2.1633677977468E-01
(PID.TID 0000.0001) %MON dynstat_eta_del2             =   2.4631578221403E-06
(PID.TID 0000.0001) %MON dynstat_uvel_max             =   1.2988002211747E+00
(PID.TID 0000.0001) %MON dynstat_uvel_min             =  -7.0420176515172E-01
(PID.TID 0000.0001) %MON dynstat_uvel_mean            =   2.6656460227214E-03
(PID.TID 0000.0001) %MON dynstat_uvel_sd              =   5.2331380636539E-02
(PID.TID 0000.0001) %MON dynstat_uvel_del2            =   4.9209140962329E-07
(PID.TID 0000.0001) %MON dynstat_vvel_max             =   2.3044155098749E+00
(PID.TID 0000.0001) %MON dynstat_vvel_min             =  -9.1534979903406E-01
(PID.TID 0000.0001) %MON dynstat_vvel_mean            =  -3.3764074672623E-03
(PID.TID 0000.0001) %MON dynstat_vvel_sd              =   4.8857596236783E-02
(PID.TID 0000.0001) %MON dynstat_vvel_del2            =   4.5067423453082E-07
(PID.TID 0000.0001) %MON dynstat_wvel_max             =   3.5629135227428E-02
(PID.TID 0000.0001) %MON dynstat_wvel_min             =  -2.8346118533577E-02
(PID.TID 0000.0001) %MON dynstat_wvel_mean            =  -1.1519436772765E-05
(PID.TID 0000.0001) %MON dynstat_wvel_sd              =   5.9348190757993E-04
(PID.TID 0000.0001) %MON dynstat_wvel_del2            =   7.4958815701931E-08
(PID.TID 0000.0001) %MON dynstat_theta_max            =   2.6139142686591E+01
(PID.TID 0000.0001) %MON dynstat_theta_min            =   1.4688644405106E+00
(PID.TID 0000.0001) %MON dynstat_theta_mean           =   5.5098462336622E+00
(PID.TID 0000.0001) %MON dynstat_theta_sd             =   4.7733460689930E+00
(PID.TID 0000.0001) %MON dynstat_theta_del2           =   4.0196149517405E-06
(PID.TID 0000.0001) %MON dynstat_salt_max             =   3.9167319796963E+01
(PID.TID 0000.0001) %MON dynstat_salt_min             =   3.3095172994624E+01
(PID.TID 0000.0001) %MON dynstat_salt_mean            =   3.5173366185018E+01
(PID.TID 0000.0001) %MON dynstat_salt_sd              =   3.7891110226350E-01
(PID.TID 0000.0001) %MON dynstat_salt_del2            =   5.1388377886547E-07
(PID.TID 0000.0001) %MON dynstat_sst_max              =   2.6135525063665E+01
(PID.TID 0000.0001) %MON dynstat_sst_min              =   3.9780321560921E+00
(PID.TID 0000.0001) %MON dynstat_sst_mean             =   1.9639613224584E+01
(PID.TID 0000.0001) %MON dynstat_sst_sd               =   3.6390225377859E+00
(PID.TID 0000.0001) %MON dynstat_sst_del2             =   1.9110204533387E-05
(PID.TID 0000.0001) %MON dynstat_sss_max              =   3.7335905062968E+01
(PID.TID 0000.0001) %MON dynstat_sss_min              =   3.3095172994624E+01
(PID.TID 0000.0001) %MON dynstat_sss_mean             =   3.5868263090528E+01
(PID.TID 0000.0001) %MON dynstat_sss_sd               =   4.8719303995397E-01
(PID.TID 0000.0001) %MON dynstat_sss_del2             =   4.9456215901483E-06
(PID.TID 0000.0001) %MON forcing_qnet_max             =   1.1724881350212E+03
(PID.TID 0000.0001) %MON forcing_qnet_min             =  -2.8741668600481E+02
(PID.TID 0000.0001) %MON forcing_qnet_mean            =   2.4205281877991E+02
(PID.TID 0000.0001) %MON forcing_qnet_sd              =   1.4220402258888E+02
(PID.TID 0000.0001) %MON forcing_qnet_del2            =   1.6733594733448E-03
(PID.TID 0000.0001) %MON forcing_qsw_max              =   0.0000000000000E+00
(PID.TID 0000.0001) %MON forcing_qsw_min              =   0.0000000000000E+00
(PID.TID 0000.0001) %MON forcing_qsw_mean             =   0.0000000000000E+00
(PID.TID 0000.0001) %MON forcing_qsw_sd               =   0.0000000000000E+00
(PID.TID 0000.0001) %MON forcing_qsw_del2             =   0.0000000000000E+00
(PID.TID 0000.0001) %MON forcing_empmr_max            =   2.5694748278224E-04
(PID.TID 0000.0001) %MON forcing_empmr_min            =  -1.6464738848469E-03
(PID.TID 0000.0001) %MON forcing_empmr_mean           =   1.6988678568731E-05
(PID.TID 0000.0001) %MON forcing_empmr_sd             =   1.3056310219374E-04
(PID.TID 0000.0001) %MON forcing_empmr_del2           =   3.3490143226341E-09
(PID.TID 0000.0001) %MON forcing_fu_max               =   8.3327234629489E-01
(PID.TID 0000.0001) %MON forcing_fu_min               =  -4.1062513613662E-01
(PID.TID 0000.0001) %MON forcing_fu_mean              =   6.3158108116404E-02
(PID.TID 0000.0001) %MON forcing_fu_sd                =   1.5495133126923E-01
(PID.TID 0000.0001) %MON forcing_fu_del2              =   3.3761174667705E-07
(PID.TID 0000.0001) %MON forcing_fv_max               =   3.9065705011713E-01
(PID.TID 0000.0001) %MON forcing_fv_min               =  -5.6634802139502E-01
(PID.TID 0000.0001) %MON forcing_fv_mean              =   1.0703323643026E-02
(PID.TID 0000.0001) %MON forcing_fv_sd                =   1.0153915676193E-01
(PID.TID 0000.0001) %MON forcing_fv_del2              =   2.4417067954318E-07
(PID.TID 0000.0001) %MON trAdv_CFL_u_max              =   7.8799200263806E-02
(PID.TID 0000.0001) %MON trAdv_CFL_v_max              =   1.4560082796279E-01
(PID.TID 0000.0001) %MON trAdv_CFL_w_max              =   5.3551902012767E-01
(PID.TID 0000.0001) %MON advcfl_uvel_max              =   7.8799199190884E-02
(PID.TID 0000.0001) %MON advcfl_vvel_max              =   1.4564319218142E-01
(PID.TID 0000.0001) %MON advcfl_wvel_max              =   5.3136770989412E-01
(PID.TID 0000.0001) %MON advcfl_W_hf_max              =   5.3551902012767E-01
(PID.TID 0000.0001) %MON pe_b_mean                    =  -6.1128644317390E-04
(PID.TID 0000.0001) %MON ke_max                       =   2.4136630863951E+00
(PID.TID 0000.0001) %MON ke_mean                      =   2.5530825926503E-03
(PID.TID 0000.0001) %MON ke_vol                       =   4.5818637279720E+16
(PID.TID 0000.0001) %MON vort_r_min                   =  -5.1449738663204E-04
(PID.TID 0000.0001) %MON vort_r_max                   =   6.0048965283765E-04
(PID.TID 0000.0001) %MON vort_a_mean                  =   8.2147625482285E-05
(PID.TID 0000.0001) %MON vort_a_sd                    =   1.0134613096725E-05
(PID.TID 0000.0001) %MON vort_p_mean                  =   8.4848846870129E-05
(PID.TID 0000.0001) %MON vort_p_sd                    =   3.4971246902027E-05
(PID.TID 0000.0001) %MON surfExpan_theta_mean         =  -2.2375327869436E-04
(PID.TID 0000.0001) %MON surfExpan_salt_mean          =  -7.4085802522716E-04
(PID.TID 0000.0001) // =======================================================
(PID.TID 0000.0001) // End MONITOR dynamic field statistics
(PID.TID 0000.0001) // =======================================================
(PID.TID 0000.0001) // =======================================================
(PID.TID 0000.0001) // Begin OBCS MONITOR field statistics
(PID.TID 0000.0001) // =======================================================
(PID.TID 0000.0001) %MON obc_N_vVel_max               =   6.9508252845469E-01
(PID.TID 0000.0001) %MON obc_N_vVel_min               =  -3.2303846185327E-01
(PID.TID 0000.0001) %MON obc_N_vVel_mean              =   1.3565341758323E-02
(PID.TID 0000.0001) %MON obc_N_vVel_sd                =   6.4642702525486E-02
(PID.TID 0000.0001) %MON obc_N_vVel_Int               =   1.9418901303540E+08
(PID.TID 0000.0001) %MON obc_S_vVel_max               =   2.3044155098749E+00
(PID.TID 0000.0001) %MON obc_S_vVel_min               =  -2.6277536312677E-01
(PID.TID 0000.0001) %MON obc_S_vVel_mean              =  -1.4753268654655E-03
(PID.TID 0000.0001) %MON obc_S_vVel_sd                =   3.6069865338561E-02
(PID.TID 0000.0001) %MON obc_S_vVel_Int               =  -4.4913227750133E+07
(PID.TID 0000.0001) %MON obc_N_theta_max              =   1.6390156227667E+01
(PID.TID 0000.0001) %MON obc_N_theta_min              =   1.8895911195086E+00
(PID.TID 0000.0001) %MON obc_N_theta_mean             =   5.1589214286885E+00
(PID.TID 0000.0001) %MON obc_N_theta_sd               =   3.4826596030751E+00
(PID.TID 0000.0001) %MON obc_S_theta_max              =   2.5544119318571E+01
(PID.TID 0000.0001) %MON obc_S_theta_min              =   1.4632988111847E+00
(PID.TID 0000.0001) %MON obc_S_theta_mean             =   5.4595513400147E+00
(PID.TID 0000.0001) %MON obc_S_theta_sd               =   5.3559060658268E+00
(PID.TID 0000.0001) %MON obc_N_salt_max               =   3.5910864381053E+01
(PID.TID 0000.0001) %MON obc_N_salt_min               =   3.3295058091112E+01
(PID.TID 0000.0001) %MON obc_N_salt_mean              =   3.5114561948457E+01
(PID.TID 0000.0001) %MON obc_N_salt_sd                =   3.0984837468061E-01
(PID.TID 0000.0001) %MON obc_S_salt_max               =   3.7318291555549E+01
(PID.TID 0000.0001) %MON obc_S_salt_min               =   3.4844694731580E+01
(PID.TID 0000.0001) %MON obc_S_salt_mean              =   3.5168372363501E+01
(PID.TID 0000.0001) %MON obc_S_salt_sd                =   4.5716829923947E-01
(PID.TID 0000.0001) // =======================================================
(PID.TID 0000.0001) // End OBCS MONITOR field statistics
(PID.TID 0000.0001) // =======================================================
(PID.TID 0000.0001)  EXF_INTERP_READ: opening file: era5/ERA5_rain_2008
(PID.TID 0000.0001)  EXF_INTERP_READ: opening file: era5/ERA5_dsw_2008
(PID.TID 0000.0001)  EXF_INTERP_READ: opening file: era5/ERA5_dlw_2008
(PID.TID 0000.0001) // =======================================================
(PID.TID 0000.0001) // Begin MONITOR EXF statistics
(PID.TID 0000.0001) // =======================================================
(PID.TID 0000.0001) %MON exf_tsnumber                 =                     8
(PID.TID 0000.0001) %MON exf_time_sec                 =   1.9200000000000E+03
(PID.TID 0000.0001) %MON exf_ustress_max              =   8.4413649145111E-01
(PID.TID 0000.0001) %MON exf_ustress_min              =  -4.0795996592191E-01
(PID.TID 0000.0001) %MON exf_ustress_mean             =   6.3197801152505E-02
(PID.TID 0000.0001) %MON exf_ustress_sd               =   1.5485863862921E-01
(PID.TID 0000.0001) %MON exf_ustress_del2             =   3.7973848098705E-07
(PID.TID 0000.0001) %MON exf_vstress_max              =   3.9076882155151E-01
(PID.TID 0000.0001) %MON exf_vstress_min              =  -5.6287956863217E-01
(PID.TID 0000.0001) %MON exf_vstress_mean             =   1.0767235316185E-02
(PID.TID 0000.0001) %MON exf_vstress_sd               =   1.0139723378943E-01
(PID.TID 0000.0001) %MON exf_vstress_del2             =   2.6768550156448E-07
(PID.TID 0000.0001) %MON exf_hflux_max                =   1.1601030125401E+03
(PID.TID 0000.0001) %MON exf_hflux_min                =  -2.8616103056664E+02
(PID.TID 0000.0001) %MON exf_hflux_mean               =   2.3953680718467E+02
(PID.TID 0000.0001) %MON exf_hflux_sd                 =   1.4022846989307E+02
(PID.TID 0000.0001) %MON exf_hflux_del2               =   6.2522298994893E-02
(PID.TID 0000.0001) %MON exf_sflux_max                =   2.5587097872886E-07
(PID.TID 0000.0001) %MON exf_sflux_min                =  -1.7183935974714E-06
(PID.TID 0000.0001) %MON exf_sflux_mean               =   1.7315365032138E-08
(PID.TID 0000.0001) %MON exf_sflux_sd                 =   1.3420515097234E-07
(PID.TID 0000.0001) %MON exf_sflux_del2               =   3.2331952980872E-11
(PID.TID 0000.0001) %MON exf_uwind_max                =   1.9626473159734E+01
(PID.TID 0000.0001) %MON exf_uwind_min                =  -1.4899752287893E+01
(PID.TID 0000.0001) %MON exf_uwind_mean               =   2.4772690118993E+00
(PID.TID 0000.0001) %MON exf_uwind_sd                 =   6.6666606087578E+00
(PID.TID 0000.0001) %MON exf_uwind_del2               =   1.5851196279639E-03
(PID.TID 0000.0001) %MON exf_vwind_max                =   1.4392481854302E+01
(PID.TID 0000.0001) %MON exf_vwind_min                =  -1.2775840765003E+01
(PID.TID 0000.0001) %MON exf_vwind_mean               =   8.5865463252574E-01
(PID.TID 0000.0001) %MON exf_vwind_sd                 =   5.1769839762570E+00
(PID.TID 0000.0001) %MON exf_vwind_del2               =   1.1702758015655E-03
(PID.TID 0000.0001) %MON exf_wspeed_max               =   2.0301165241164E+01
(PID.TID 0000.0001) %MON exf_wspeed_min               =   3.1713214676504E-03
(PID.TID 0000.0001) %MON exf_wspeed_mean              =   7.7114979414020E+00
(PID.TID 0000.0001) %MON exf_wspeed_sd                =   4.3188512127431E+00
(PID.TID 0000.0001) %MON exf_wspeed_del2              =   1.9701438547744E-03
(PID.TID 0000.0001) %MON exf_atemp_max                =   2.9816024908877E+02
(PID.TID 0000.0001) %MON exf_atemp_min                =   2.7434695737140E+02
(PID.TID 0000.0001) %MON exf_atemp_mean               =   2.9067717711736E+02
(PID.TID 0000.0001) %MON exf_atemp_sd                 =   3.9439906954105E+00
(PID.TID 0000.0001) %MON exf_atemp_del2               =   3.8821937807754E-03
(PID.TID 0000.0001) %MON exf_aqh_max                  =   1.6766580318326E-02
(PID.TID 0000.0001) %MON exf_aqh_min                  =   2.7217064168423E-03
(PID.TID 0000.0001) %MON exf_aqh_mean                 =   9.4192672795539E-03
(PID.TID 0000.0001) %MON exf_aqh_sd                   =   2.8735676243460E-03
(PID.TID 0000.0001) %MON exf_aqh_del2                 =   2.1257719690203E-06
(PID.TID 0000.0001) %MON exf_lwflux_max               =   1.5286011862961E+02
(PID.TID 0000.0001) %MON exf_lwflux_min               =  -6.8274130349014E+00
(PID.TID 0000.0001) %MON exf_lwflux_mean              =   6.5420391815322E+01
(PID.TID 0000.0001) %MON exf_lwflux_sd                =   2.6803555518750E+01
(PID.TID 0000.0001) %MON exf_lwflux_del2              =   1.5474336977638E-02
(PID.TID 0000.0001) %MON exf_evap_max                 =   2.7968625787494E-07
(PID.TID 0000.0001) %MON exf_evap_min                 =  -9.5551697127827E-08
(PID.TID 0000.0001) %MON exf_evap_mean                =   5.9261291970129E-08
(PID.TID 0000.0001) %MON exf_evap_sd                  =   4.2032531952229E-08
(PID.TID 0000.0001) %MON exf_evap_del2                =   1.6358901882400E-11
(PID.TID 0000.0001) %MON exf_precip_max               =   1.8946563861111E-06
(PID.TID 0000.0001) %MON exf_precip_min               =   0.0000000000000E+00
(PID.TID 0000.0001) %MON exf_precip_mean              =   4.0357447366000E-08
(PID.TID 0000.0001) %MON exf_precip_sd                =   1.3917899041698E-07
(PID.TID 0000.0001) %MON exf_precip_del2              =   3.4784935734566E-11
(PID.TID 0000.0001) %MON exf_swflux_max               =   0.0000000000000E+00
(PID.TID 0000.0001) %MON exf_swflux_min               =   0.0000000000000E+00
(PID.TID 0000.0001) %MON exf_swflux_mean              =   0.0000000000000E+00
(PID.TID 0000.0001) %MON exf_swflux_sd                =   0.0000000000000E+00
(PID.TID 0000.0001) %MON exf_swflux_del2              =   0.0000000000000E+00
(PID.TID 0000.0001) %MON exf_swdown_max               =   0.0000000000000E+00
(PID.TID 0000.0001) %MON exf_swdown_min               =   0.0000000000000E+00
(PID.TID 0000.0001) %MON exf_swdown_mean              =   0.0000000000000E+00
(PID.TID 0000.0001) %MON exf_swdown_sd                =   0.0000000000000E+00
(PID.TID 0000.0001) %MON exf_swdown_del2              =   0.0000000000000E+00
(PID.TID 0000.0001) %MON exf_lwdown_max               =   4.1825043251463E+02
(PID.TID 0000.0001) %MON exf_lwdown_min               =   2.2314380611649E+02
(PID.TID 0000.0001) %MON exf_lwdown_mean              =   3.4962240752248E+02
(PID.TID 0000.0001) %MON exf_lwdown_sd                =   3.1990068047018E+01
(PID.TID 0000.0001) %MON exf_lwdown_del2              =   7.6687983129252E-02
(PID.TID 0000.0001) %MON exf_apressure_max            =   1.0279973711983E+05
(PID.TID 0000.0001) %MON exf_apressure_min            =   1.0000974426081E+05
(PID.TID 0000.0001) %MON exf_apressure_mean           =   1.0216529724987E+05
(PID.TID 0000.0001) %MON exf_apressure_sd             =   4.9888638409029E+02
(PID.TID 0000.0001) %MON exf_apressure_del2           =   2.2357064697526E+01
(PID.TID 0000.0001) %MON exf_runoff_max               =   4.4374798712073E-08
(PID.TID 0000.0001) %MON exf_runoff_min               =   0.0000000000000E+00
(PID.TID 0000.0001) %MON exf_runoff_mean              =   1.5884795719908E-09
(PID.TID 0000.0001) %MON exf_runoff_sd                =   5.3901959599983E-09
(PID.TID 0000.0001) %MON exf_runoff_del2              =   1.2741189756369E-12
(PID.TID 0000.0001) // =======================================================
(PID.TID 0000.0001) // End MONITOR EXF statistics
(PID.TID 0000.0001) // =======================================================
 cg2d: Sum(rhs),rhsMax =   9.73951970979466E+02  7.08217969765184E-02
(PID.TID 0000.0001)      cg2d_init_res =   1.59934826171651E+00
(PID.TID 0000.0001)      cg2d_iters(min,last) =      -1     314
(PID.TID 0000.0001)      cg2d_last_res =   6.96914792590526E-12
(PID.TID 0000.0001) // =======================================================
(PID.TID 0000.0001) // Begin MONITOR dynamic field statistics
(PID.TID 0000.0001) // =======================================================
(PID.TID 0000.0001) %MON time_tsnumber                =                     9
(PID.TID 0000.0001) %MON time_secondsf                =   2.1600000000000E+03
(PID.TID 0000.0001) %MON dynstat_eta_max              =   9.9690389442160E-01
(PID.TID 0000.0001) %MON dynstat_eta_min              =  -1.3918147560197E+00
(PID.TID 0000.0001) %MON dynstat_eta_mean             =  -3.3121283138549E-02
(PID.TID 0000.0001) %MON dynstat_eta_sd               =   2.2873144329157E-01
(PID.TID 0000.0001) %MON dynstat_eta_del2             =   2.4590246649446E-06
(PID.TID 0000.0001) %MON dynstat_uvel_max             =   1.2958950991645E+00
(PID.TID 0000.0001) %MON dynstat_uvel_min             =  -7.0261169481041E-01
(PID.TID 0000.0001) %MON dynstat_uvel_mean            =   2.4299174852081E-03
(PID.TID 0000.0001) %MON dynstat_uvel_sd              =   5.2300778096690E-02
(PID.TID 0000.0001) %MON dynstat_uvel_del2            =   5.0240787764946E-07
(PID.TID 0000.0001) %MON dynstat_vvel_max             =   2.3665103372262E+00
(PID.TID 0000.0001) %MON dynstat_vvel_min             =  -9.1730481558529E-01
(PID.TID 0000.0001) %MON dynstat_vvel_mean            =  -3.6640127059633E-03
(PID.TID 0000.0001) %MON dynstat_vvel_sd              =   4.9003326247971E-02
(PID.TID 0000.0001) %MON dynstat_vvel_del2            =   4.6002352213570E-07
(PID.TID 0000.0001) %MON dynstat_wvel_max             =   3.5177652300532E-02
(PID.TID 0000.0001) %MON dynstat_wvel_min             =  -2.9013007980695E-02
(PID.TID 0000.0001) %MON dynstat_wvel_mean            =  -1.2678833044954E-05
(PID.TID 0000.0001) %MON dynstat_wvel_sd              =   5.9797067985986E-04
(PID.TID 0000.0001) %MON dynstat_wvel_del2            =   7.5495087260754E-08
(PID.TID 0000.0001) %MON dynstat_theta_max            =   2.6139010416702E+01
(PID.TID 0000.0001) %MON dynstat_theta_min            =   1.4688645849407E+00
(PID.TID 0000.0001) %MON dynstat_theta_mean           =   5.5098502929580E+00
(PID.TID 0000.0001) %MON dynstat_theta_sd             =   4.7733344091925E+00
(PID.TID 0000.0001) %MON dynstat_theta_del2           =   4.0228506652763E-06
(PID.TID 0000.0001) %MON dynstat_salt_max             =   3.9163812274974E+01
(PID.TID 0000.0001) %MON dynstat_salt_min             =   3.3096093772664E+01
(PID.TID 0000.0001) %MON dynstat_salt_mean            =   3.5173365959681E+01
(PID.TID 0000.0001) %MON dynstat_salt_sd              =   3.7891163374838E-01
(PID.TID 0000.0001) %MON dynstat_salt_del2            =   5.1744278753823E-07
(PID.TID 0000.0001) %MON dynstat_sst_max              =   2.6135815949064E+01
(PID.TID 0000.0001) %MON dynstat_sst_min              =   3.9638357634418E+00
(PID.TID 0000.0001) %MON dynstat_sst_mean             =   1.9638810043139E+01
(PID.TID 0000.0001) %MON dynstat_sst_sd               =   3.6390636171100E+00
(PID.TID 0000.0001) %MON dynstat_sst_del2             =   1.9129082046362E-05
(PID.TID 0000.0001) %MON dynstat_sss_max              =   3.7335986510303E+01
(PID.TID 0000.0001) %MON dynstat_sss_min              =   3.3096093772664E+01
(PID.TID 0000.0001) %MON dynstat_sss_mean             =   3.5868298336494E+01
(PID.TID 0000.0001) %MON dynstat_sss_sd               =   4.8719313816801E-01
(PID.TID 0000.0001) %MON dynstat_sss_del2             =   4.9379282273599E-06
(PID.TID 0000.0001) %MON forcing_qnet_max             =   1.1777904789771E+03
(PID.TID 0000.0001) %MON forcing_qnet_min             =  -2.9096228428449E+02
(PID.TID 0000.0001) %MON forcing_qnet_mean            =   2.4166868484025E+02
(PID.TID 0000.0001) %MON forcing_qnet_sd              =   1.4197850141695E+02
(PID.TID 0000.0001) %MON forcing_qnet_del2            =   1.6703729673893E-03
(PID.TID 0000.0001) %MON forcing_qsw_max              =   0.0000000000000E+00
(PID.TID 0000.0001) %MON forcing_qsw_min              =   0.0000000000000E+00
(PID.TID 0000.0001) %MON forcing_qsw_mean             =   0.0000000000000E+00
(PID.TID 0000.0001) %MON forcing_qsw_sd               =   0.0000000000000E+00
(PID.TID 0000.0001) %MON forcing_qsw_del2             =   0.0000000000000E+00
(PID.TID 0000.0001) %MON forcing_empmr_max            =   2.5587097872886E-04
(PID.TID 0000.0001) %MON forcing_empmr_min            =  -1.7183935974714E-03
(PID.TID 0000.0001) %MON forcing_empmr_mean           =   1.7315365032138E-05
(PID.TID 0000.0001) %MON forcing_empmr_sd             =   1.3420515097235E-04
(PID.TID 0000.0001) %MON forcing_empmr_del2           =   3.3580682172364E-09
(PID.TID 0000.0001) %MON forcing_fu_max               =   8.4341770089332E-01
(PID.TID 0000.0001) %MON forcing_fu_min               =  -4.0794004805282E-01
(PID.TID 0000.0001) %MON forcing_fu_mean              =   6.3257079607844E-02
(PID.TID 0000.0001) %MON forcing_fu_sd                =   1.5491860355425E-01
(PID.TID 0000.0001) %MON forcing_fu_del2              =   3.3871231614827E-07
(PID.TID 0000.0001) %MON forcing_fv_max               =   3.9070136325388E-01
(PID.TID 0000.0001) %MON forcing_fv_min               =  -5.6663098227578E-01
(PID.TID 0000.0001) %MON forcing_fv_mean              =   1.0748544049618E-02
(PID.TID 0000.0001) %MON forcing_fv_sd                =   1.0152888558847E-01
(PID.TID 0000.0001) %MON forcing_fv_del2              =   2.4706621001316E-07
(PID.TID 0000.0001) %MON trAdv_CFL_u_max              =   7.8622944295151E-02
(PID.TID 0000.0001) %MON trAdv_CFL_v_max              =   1.4952419084409E-01
(PID.TID 0000.0001) %MON trAdv_CFL_w_max              =   5.3014309203870E-01
(PID.TID 0000.0001) %MON advcfl_uvel_max              =   7.8622943224629E-02
(PID.TID 0000.0001) %MON advcfl_vvel_max              =   1.4956769660982E-01
(PID.TID 0000.0001) %MON advcfl_wvel_max              =   5.2603345566630E-01
(PID.TID 0000.0001) %MON advcfl_W_hf_max              =   5.3014309203870E-01
(PID.TID 0000.0001) %MON pe_b_mean                    =  -7.3861735662274E-04
(PID.TID 0000.0001) %MON ke_max                       =   2.5365868703527E+00
(PID.TID 0000.0001) %MON ke_mean                      =   2.5589923730394E-03
(PID.TID 0000.0001) %MON ke_vol                       =   4.5818637279720E+16
(PID.TID 0000.0001) %MON vort_r_min                   =  -5.1586053369726E-04
(PID.TID 0000.0001) %MON vort_r_max                   =   6.4290479911417E-04
(PID.TID 0000.0001) %MON vort_a_mean                  =   8.2147624682866E-05
(PID.TID 0000.0001) %MON vort_a_sd                    =   1.0138107015028E-05
(PID.TID 0000.0001) %MON vort_p_mean                  =   8.4848846044424E-05
(PID.TID 0000.0001) %MON vort_p_sd                    =   3.4972356942594E-05
(PID.TID 0000.0001) %MON surfExpan_theta_mean         =  -2.6845312421616E-04
(PID.TID 0000.0001) %MON surfExpan_salt_mean          =  -8.0972879860216E-04
(PID.TID 0000.0001) // =======================================================
(PID.TID 0000.0001) // End MONITOR dynamic field statistics
(PID.TID 0000.0001) // =======================================================
(PID.TID 0000.0001) // =======================================================
(PID.TID 0000.0001) // Begin OBCS MONITOR field statistics
(PID.TID 0000.0001) // =======================================================
(PID.TID 0000.0001) %MON obc_N_vVel_max               =   6.9494126870028E-01
(PID.TID 0000.0001) %MON obc_N_vVel_min               =  -3.2329244299176E-01
(PID.TID 0000.0001) %MON obc_N_vVel_mean              =   1.3557624938349E-02
(PID.TID 0000.0001) %MON obc_N_vVel_sd                =   6.4626123524563E-02
(PID.TID 0000.0001) %MON obc_N_vVel_Int               =   1.9407854610568E+08
(PID.TID 0000.0001) %MON obc_S_vVel_max               =   2.3665103372262E+00
(PID.TID 0000.0001) %MON obc_S_vVel_min               =  -2.6286729972578E-01
(PID.TID 0000.0001) %MON obc_S_vVel_mean              =  -2.1737948102404E-03
(PID.TID 0000.0001) %MON obc_S_vVel_sd                =   3.6128657339757E-02
(PID.TID 0000.0001) %MON obc_S_vVel_Int               =  -6.6176617317669E+07
(PID.TID 0000.0001) %MON obc_N_theta_max              =   1.6390068125480E+01
(PID.TID 0000.0001) %MON obc_N_theta_min              =   1.8895911685740E+00
(PID.TID 0000.0001) %MON obc_N_theta_mean             =   5.1589140445384E+00
(PID.TID 0000.0001) %MON obc_N_theta_sd               =   3.4826503119708E+00
(PID.TID 0000.0001) %MON obc_S_theta_max              =   2.5544016569792E+01
(PID.TID 0000.0001) %MON obc_S_theta_min              =   1.4632992074720E+00
(PID.TID 0000.0001) %MON obc_S_theta_mean             =   5.4595505349901E+00
(PID.TID 0000.0001) %MON obc_S_theta_sd               =   5.3559021947514E+00
(PID.TID 0000.0001) %MON obc_N_salt_max               =   3.5910863972689E+01
(PID.TID 0000.0001) %MON obc_N_salt_min               =   3.3295063593745E+01
(PID.TID 0000.0001) %MON obc_N_salt_mean              =   3.5114561652470E+01
(PID.TID 0000.0001) %MON obc_N_salt_sd                =   3.0984825548436E-01
(PID.TID 0000.0001) %MON obc_S_salt_max               =   3.7318284671165E+01
(PID.TID 0000.0001) %MON obc_S_salt_min               =   3.4844694783800E+01
(PID.TID 0000.0001) %MON obc_S_salt_mean              =   3.5168372291584E+01
(PID.TID 0000.0001) %MON obc_S_salt_sd                =   4.5716794818441E-01
(PID.TID 0000.0001) // =======================================================
(PID.TID 0000.0001) // End OBCS MONITOR field statistics
(PID.TID 0000.0001) // =======================================================
(PID.TID 0000.0001) // =======================================================
(PID.TID 0000.0001) // Begin MONITOR EXF statistics
(PID.TID 0000.0001) // =======================================================
(PID.TID 0000.0001) %MON exf_tsnumber                 =                     9
(PID.TID 0000.0001) %MON exf_time_sec                 =   2.1600000000000E+03
(PID.TID 0000.0001) %MON exf_ustress_max              =   8.5492077392596E-01
(PID.TID 0000.0001) %MON exf_ustress_min              =  -4.0539564063582E-01
(PID.TID 0000.0001) %MON exf_ustress_mean             =   6.3320659806884E-02
(PID.TID 0000.0001) %MON exf_ustress_sd               =   1.5489914917480E-01
(PID.TID 0000.0001) %MON exf_ustress_del2             =   3.8402035892102E-07
(PID.TID 0000.0001) %MON exf_vstress_max              =   3.9217577156555E-01
(PID.TID 0000.0001) %MON exf_vstress_min              =  -5.6363809119810E-01
(PID.TID 0000.0001) %MON exf_vstress_mean             =   1.0819685025195E-02
(PID.TID 0000.0001) %MON exf_vstress_sd               =   1.0145384376168E-01
(PID.TID 0000.0001) %MON exf_vstress_del2             =   2.7372050836302E-07
(PID.TID 0000.0001) %MON exf_hflux_max                =   1.1665062161338E+03
(PID.TID 0000.0001) %MON exf_hflux_min                =  -2.8860876829215E+02
(PID.TID 0000.0001) %MON exf_hflux_mean               =   2.3952338418596E+02
(PID.TID 0000.0001) %MON exf_hflux_sd                 =   1.4031693293916E+02
(PID.TID 0000.0001) %MON exf_hflux_del2               =   6.2546717975320E-02
(PID.TID 0000.0001) %MON exf_sflux_max                =   2.5654310834465E-07
(PID.TID 0000.0001) %MON exf_sflux_min                =  -1.7372094162703E-06
(PID.TID 0000.0001) %MON exf_sflux_mean               =   1.7066306508629E-08
(PID.TID 0000.0001) %MON exf_sflux_sd                 =   1.3329247034092E-07
(PID.TID 0000.0001) %MON exf_sflux_del2               =   3.2285295529431E-11
(PID.TID 0000.0001) %MON exf_uwind_max                =   1.9731660564112E+01
(PID.TID 0000.0001) %MON exf_uwind_min                =  -1.4870803480958E+01
(PID.TID 0000.0001) %MON exf_uwind_mean               =   2.4791236760531E+00
(PID.TID 0000.0001) %MON exf_uwind_sd                 =   6.6661693257577E+00
(PID.TID 0000.0001) %MON exf_uwind_del2               =   1.5857952708717E-03
(PID.TID 0000.0001) %MON exf_vwind_max                =   1.4422057522385E+01
(PID.TID 0000.0001) %MON exf_vwind_min                =  -1.2781474984838E+01
(PID.TID 0000.0001) %MON exf_vwind_mean               =   8.6038915457609E-01
(PID.TID 0000.0001) %MON exf_vwind_sd                 =   5.1759351130979E+00
(PID.TID 0000.0001) %MON exf_vwind_del2               =   1.1697215861576E-03
(PID.TID 0000.0001) %MON exf_wspeed_max               =   2.0283845150424E+01
(PID.TID 0000.0001) %MON exf_wspeed_min               =   1.2419165278203E-02
(PID.TID 0000.0001) %MON exf_wspeed_mean              =   7.7102093601902E+00
(PID.TID 0000.0001) %MON exf_wspeed_sd                =   4.3205454626919E+00
(PID.TID 0000.0001) %MON exf_wspeed_del2              =   1.9703555541739E-03
(PID.TID 0000.0001) %MON exf_atemp_max                =   2.9815805176010E+02
(PID.TID 0000.0001) %MON exf_atemp_min                =   2.7432135602455E+02
(PID.TID 0000.0001) %MON exf_atemp_mean               =   2.9067405591146E+02
(PID.TID 0000.0001) %MON exf_atemp_sd                 =   3.9444519001948E+00
(PID.TID 0000.0001) %MON exf_atemp_del2               =   3.8815701477198E-03
(PID.TID 0000.0001) %MON exf_aqh_max                  =   1.6759594067996E-02
(PID.TID 0000.0001) %MON exf_aqh_min                  =   2.7194117074780E-03
(PID.TID 0000.0001) %MON exf_aqh_mean                 =   9.4180791267074E-03
(PID.TID 0000.0001) %MON exf_aqh_sd                   =   2.8742703637333E-03
(PID.TID 0000.0001) %MON exf_aqh_del2                 =   2.1254363652653E-06
(PID.TID 0000.0001) %MON exf_lwflux_max               =   1.5313195820994E+02
(PID.TID 0000.0001) %MON exf_lwflux_min               =  -4.6269669252553E+00
(PID.TID 0000.0001) %MON exf_lwflux_mean              =   6.5401906541037E+01
(PID.TID 0000.0001) %MON exf_lwflux_sd                =   2.6703214755923E+01
(PID.TID 0000.0001) %MON exf_lwflux_del2              =   1.5466234857430E-02
(PID.TID 0000.0001) %MON exf_evap_max                 =   2.8140591256785E-07
(PID.TID 0000.0001) %MON exf_evap_min                 =  -9.6361256065912E-08
(PID.TID 0000.0001) %MON exf_evap_mean                =   5.9255368761508E-08
(PID.TID 0000.0001) %MON exf_evap_sd                  =   4.2034757001989E-08
(PID.TID 0000.0001) %MON exf_evap_del2                =   1.6362990424323E-11
(PID.TID 0000.0001) %MON exf_precip_max               =   1.9141070776022E-06
(PID.TID 0000.0001) %MON exf_precip_min               =   0.0000000000000E+00
(PID.TID 0000.0001) %MON exf_precip_mean              =   4.0600582680888E-08
(PID.TID 0000.0001) %MON exf_precip_sd                =   1.3843006968585E-07
(PID.TID 0000.0001) %MON exf_precip_del2              =   3.4860788778378E-11
(PID.TID 0000.0001) %MON exf_swflux_max               =   0.0000000000000E+00
(PID.TID 0000.0001) %MON exf_swflux_min               =   0.0000000000000E+00
(PID.TID 0000.0001) %MON exf_swflux_mean              =   0.0000000000000E+00
(PID.TID 0000.0001) %MON exf_swflux_sd                =   0.0000000000000E+00
(PID.TID 0000.0001) %MON exf_swflux_del2              =   0.0000000000000E+00
(PID.TID 0000.0001) %MON exf_swdown_max               =   0.0000000000000E+00
(PID.TID 0000.0001) %MON exf_swdown_min               =   0.0000000000000E+00
(PID.TID 0000.0001) %MON exf_swdown_mean              =   0.0000000000000E+00
(PID.TID 0000.0001) %MON exf_swdown_sd                =   0.0000000000000E+00
(PID.TID 0000.0001) %MON exf_swdown_del2              =   0.0000000000000E+00
(PID.TID 0000.0001) %MON exf_lwdown_max               =   4.1828155649792E+02
(PID.TID 0000.0001) %MON exf_lwdown_min               =   2.2358338387105E+02
(PID.TID 0000.0001) %MON exf_lwdown_mean              =   3.4963689870004E+02
(PID.TID 0000.0001) %MON exf_lwdown_sd                =   3.1864231529218E+01
(PID.TID 0000.0001) %MON exf_lwdown_del2              =   7.6683775480410E-02
(PID.TID 0000.0001) %MON exf_apressure_max            =   1.0280269190612E+05
(PID.TID 0000.0001) %MON exf_apressure_min            =   1.0001241168543E+05
(PID.TID 0000.0001) %MON exf_apressure_mean           =   1.0216607455621E+05
(PID.TID 0000.0001) %MON exf_apressure_sd             =   4.9880298265896E+02
(PID.TID 0000.0001) %MON exf_apressure_del2           =   2.2357252340705E+01
(PID.TID 0000.0001) %MON exf_runoff_max               =   4.4374798712073E-08
(PID.TID 0000.0001) %MON exf_runoff_min               =   0.0000000000000E+00
(PID.TID 0000.0001) %MON exf_runoff_mean              =   1.5884795719908E-09
(PID.TID 0000.0001) %MON exf_runoff_sd                =   5.3901959599983E-09
(PID.TID 0000.0001) %MON exf_runoff_del2              =   1.2741189756369E-12
(PID.TID 0000.0001) // =======================================================
(PID.TID 0000.0001) // End MONITOR EXF statistics
(PID.TID 0000.0001) // =======================================================
 cg2d: Sum(rhs),rhsMax =   1.14948318187700E+03  7.52808644293998E-02
(PID.TID 0000.0001)      cg2d_init_res =   1.65660587729604E+00
(PID.TID 0000.0001)      cg2d_iters(min,last) =      -1     314
(PID.TID 0000.0001)      cg2d_last_res =   6.55602434799511E-12
(PID.TID 0000.0001) // =======================================================
(PID.TID 0000.0001) // Begin MONITOR dynamic field statistics
(PID.TID 0000.0001) // =======================================================
(PID.TID 0000.0001) %MON time_tsnumber                =                    10
(PID.TID 0000.0001) %MON time_secondsf                =   2.4000000000000E+03
(PID.TID 0000.0001) %MON dynstat_eta_max              =   9.9398927101622E-01
(PID.TID 0000.0001) %MON dynstat_eta_min              =  -1.3983167019267E+00
(PID.TID 0000.0001) %MON dynstat_eta_mean             =  -3.9090590772829E-02
(PID.TID 0000.0001) %MON dynstat_eta_sd               =   2.4014711478564E-01
(PID.TID 0000.0001) %MON dynstat_eta_del2             =   2.4103768992939E-06
(PID.TID 0000.0001) %MON dynstat_uvel_max             =   1.2914065897627E+00
(PID.TID 0000.0001) %MON dynstat_uvel_min             =  -7.0095401133581E-01
(PID.TID 0000.0001) %MON dynstat_uvel_mean            =   2.1931593621031E-03
(PID.TID 0000.0001) %MON dynstat_uvel_sd              =   5.2278683285261E-02
(PID.TID 0000.0001) %MON dynstat_uvel_del2            =   5.1226274732579E-07
(PID.TID 0000.0001) %MON dynstat_vvel_max             =   2.4281312600680E+00
(PID.TID 0000.0001) %MON dynstat_vvel_min             =  -9.1850227057705E-01
(PID.TID 0000.0001) %MON dynstat_vvel_mean            =  -3.9343900193383E-03
(PID.TID 0000.0001) %MON dynstat_vvel_sd              =   4.9130753440166E-02
(PID.TID 0000.0001) %MON dynstat_vvel_del2            =   4.6866687096465E-07
(PID.TID 0000.0001) %MON dynstat_wvel_max             =   3.4683094484280E-02
(PID.TID 0000.0001) %MON dynstat_wvel_min             =  -3.0236391846369E-02
(PID.TID 0000.0001) %MON dynstat_wvel_mean            =  -1.3822697757393E-05
(PID.TID 0000.0001) %MON dynstat_wvel_sd              =   6.0192609831521E-04
(PID.TID 0000.0001) %MON dynstat_wvel_del2            =   7.5315185721239E-08
(PID.TID 0000.0001) %MON dynstat_theta_max            =   2.6140703513674E+01
(PID.TID 0000.0001) %MON dynstat_theta_min            =   1.4688647390169E+00
(PID.TID 0000.0001) %MON dynstat_theta_mean           =   5.5098563733763E+00
(PID.TID 0000.0001) %MON dynstat_theta_sd             =   4.7733257556336E+00
(PID.TID 0000.0001) %MON dynstat_theta_del2           =   4.0261140968913E-06
(PID.TID 0000.0001) %MON dynstat_salt_max             =   3.9160113547353E+01
(PID.TID 0000.0001) %MON dynstat_salt_min             =   3.3097060911555E+01
(PID.TID 0000.0001) %MON dynstat_salt_mean            =   3.5173365897045E+01
(PID.TID 0000.0001) %MON dynstat_salt_sd              =   3.7891231899375E-01
(PID.TID 0000.0001) %MON dynstat_salt_del2            =   5.2075936311343E-07
(PID.TID 0000.0001) %MON dynstat_sst_max              =   2.6137284132748E+01
(PID.TID 0000.0001) %MON dynstat_sst_min              =   3.9496744537753E+00
(PID.TID 0000.0001) %MON dynstat_sst_mean             =   1.9638050932236E+01
(PID.TID 0000.0001) %MON dynstat_sst_sd               =   3.6391034683099E+00
(PID.TID 0000.0001) %MON dynstat_sst_del2             =   1.9151886039002E-05
(PID.TID 0000.0001) %MON dynstat_sss_max              =   3.7336066800986E+01
(PID.TID 0000.0001) %MON dynstat_sss_min              =   3.3097060911555E+01
(PID.TID 0000.0001) %MON dynstat_sss_mean             =   3.5868331552219E+01
(PID.TID 0000.0001) %MON dynstat_sss_sd               =   4.8719207275890E-01
(PID.TID 0000.0001) %MON dynstat_sss_del2             =   4.9307523398362E-06
(PID.TID 0000.0001) %MON forcing_qnet_max             =   1.1844036636058E+03
(PID.TID 0000.0001) %MON forcing_qnet_min             =  -2.9341763475183E+02
(PID.TID 0000.0001) %MON forcing_qnet_mean            =   2.4163819369587E+02
(PID.TID 0000.0001) %MON forcing_qnet_sd              =   1.4204490160349E+02
(PID.TID 0000.0001) %MON forcing_qnet_del2            =   1.6628478548997E-03
(PID.TID 0000.0001) %MON forcing_qsw_max              =   0.0000000000000E+00
(PID.TID 0000.0001) %MON forcing_qsw_min              =   0.0000000000000E+00
(PID.TID 0000.0001) %MON forcing_qsw_mean             =   0.0000000000000E+00
(PID.TID 0000.0001) %MON forcing_qsw_sd               =   0.0000000000000E+00
(PID.TID 0000.0001) %MON forcing_qsw_del2             =   0.0000000000000E+00
(PID.TID 0000.0001) %MON forcing_empmr_max            =   2.5654310834465E-04
(PID.TID 0000.0001) %MON forcing_empmr_min            =  -1.7372094162703E-03
(PID.TID 0000.0001) %MON forcing_empmr_mean           =   1.7066306508629E-05
(PID.TID 0000.0001) %MON forcing_empmr_sd             =   1.3329247034092E-04
(PID.TID 0000.0001) %MON forcing_empmr_del2           =   3.1667430098118E-09
(PID.TID 0000.0001) %MON forcing_fu_max               =   8.5458065435797E-01
(PID.TID 0000.0001) %MON forcing_fu_min               =  -4.0530574698965E-01
(PID.TID 0000.0001) %MON forcing_fu_mean              =   6.3380425504930E-02
(PID.TID 0000.0001) %MON forcing_fu_sd                =   1.5495927540477E-01
(PID.TID 0000.0001) %MON forcing_fu_del2              =   3.4376258169286E-07
(PID.TID 0000.0001) %MON forcing_fv_max               =   3.9198873483807E-01
(PID.TID 0000.0001) %MON forcing_fv_min               =  -5.6758311272697E-01
(PID.TID 0000.0001) %MON forcing_fv_mean              =   1.0801335593806E-02
(PID.TID 0000.0001) %MON forcing_fv_sd                =   1.0158569104299E-01
(PID.TID 0000.0001) %MON forcing_fv_del2              =   2.5309677146760E-07
(PID.TID 0000.0001) %MON trAdv_CFL_u_max              =   7.8350623005493E-02
(PID.TID 0000.0001) %MON trAdv_CFL_v_max              =   1.5341761082289E-01
(PID.TID 0000.0001) %MON trAdv_CFL_w_max              =   5.0959152782121E-01
(PID.TID 0000.0001) %MON advcfl_uvel_max              =   7.8350621938679E-02
(PID.TID 0000.0001) %MON advcfl_vvel_max              =   1.5346224942349E-01
(PID.TID 0000.0001) %MON advcfl_wvel_max              =   5.0564120590012E-01
(PID.TID 0000.0001) %MON advcfl_W_hf_max              =   5.0959152782121E-01
(PID.TID 0000.0001) %MON pe_b_mean                    =  -8.7686831944405E-04
(PID.TID 0000.0001) %MON ke_max                       =   2.6677523559512E+00
(PID.TID 0000.0001) %MON ke_mean                      =   2.5645380334716E-03
(PID.TID 0000.0001) %MON ke_vol                       =   4.5818637279720E+16
(PID.TID 0000.0001) %MON vort_r_min                   =  -5.1705857135382E-04
(PID.TID 0000.0001) %MON vort_r_max                   =   6.8315131935246E-04
(PID.TID 0000.0001) %MON vort_a_mean                  =   8.2147623875456E-05
(PID.TID 0000.0001) %MON vort_a_sd                    =   1.0141646681939E-05
(PID.TID 0000.0001) %MON vort_p_mean                  =   8.4848845210464E-05
(PID.TID 0000.0001) %MON vort_p_sd                    =   3.4974129642693E-05
(PID.TID 0000.0001) %MON surfExpan_theta_mean         =  -3.1275798470853E-04
(PID.TID 0000.0001) %MON surfExpan_salt_mean          =  -8.7740636090738E-04
(PID.TID 0000.0001) // =======================================================
(PID.TID 0000.0001) // End MONITOR dynamic field statistics
(PID.TID 0000.0001) // =======================================================
(PID.TID 0000.0001) // =======================================================
(PID.TID 0000.0001) // Begin OBCS MONITOR field statistics
(PID.TID 0000.0001) // =======================================================
(PID.TID 0000.0001) %MON obc_N_vVel_max               =   6.9478873976617E-01
(PID.TID 0000.0001) %MON obc_N_vVel_min               =  -3.2356856874258E-01
(PID.TID 0000.0001) %MON obc_N_vVel_mean              =   1.3535370834126E-02
(PID.TID 0000.0001) %MON obc_N_vVel_sd                =   6.4607763335849E-02
(PID.TID 0000.0001) %MON obc_N_vVel_Int               =   1.9375997672409E+08
(PID.TID 0000.0001) %MON obc_S_vVel_max               =   2.4281312600680E+00
(PID.TID 0000.0001) %MON obc_S_vVel_min               =  -2.6295159281772E-01
(PID.TID 0000.0001) %MON obc_S_vVel_mean              =  -2.8686933837102E-03
(PID.TID 0000.0001) %MON obc_S_vVel_sd                =   3.6192046919410E-02
(PID.TID 0000.0001) %MON obc_S_vVel_Int               =  -8.7331344872667E+07
(PID.TID 0000.0001) %MON obc_N_theta_max              =   1.6389980023293E+01
(PID.TID 0000.0001) %MON obc_N_theta_min              =   1.8895912176394E+00
(PID.TID 0000.0001) %MON obc_N_theta_mean             =   5.1589066603884E+00
(PID.TID 0000.0001) %MON obc_N_theta_sd               =   3.4826410211044E+00
(PID.TID 0000.0001) %MON obc_S_theta_max              =   2.5543913821012E+01
(PID.TID 0000.0001) %MON obc_S_theta_min              =   1.4632996037592E+00
(PID.TID 0000.0001) %MON obc_S_theta_mean             =   5.4595497299655E+00
(PID.TID 0000.0001) %MON obc_S_theta_sd               =   5.3558983237118E+00
(PID.TID 0000.0001) %MON obc_N_salt_max               =   3.5910863564326E+01
(PID.TID 0000.0001) %MON obc_N_salt_min               =   3.3295069096378E+01
(PID.TID 0000.0001) %MON obc_N_salt_mean              =   3.5114561356483E+01
(PID.TID 0000.0001) %MON obc_N_salt_sd                =   3.0984813633341E-01
(PID.TID 0000.0001) %MON obc_S_salt_max               =   3.7318277786781E+01
(PID.TID 0000.0001) %MON obc_S_salt_min               =   3.4844694836021E+01
(PID.TID 0000.0001) %MON obc_S_salt_mean              =   3.5168372219668E+01
(PID.TID 0000.0001) %MON obc_S_salt_sd                =   4.5716759715695E-01
(PID.TID 0000.0001) // =======================================================
(PID.TID 0000.0001) // End OBCS MONITOR field statistics
(PID.TID 0000.0001) // =======================================================
(PID.TID 0000.0001) // =======================================================
(PID.TID 0000.0001) // Begin MONITOR EXF statistics
(PID.TID 0000.0001) // =======================================================
(PID.TID 0000.0001) %MON exf_tsnumber                 =                    10
(PID.TID 0000.0001) %MON exf_time_sec                 =   2.4000000000000E+03
(PID.TID 0000.0001) %MON exf_ustress_max              =   8.6626700908689E-01
(PID.TID 0000.0001) %MON exf_ustress_min              =  -4.0287463853486E-01
(PID.TID 0000.0001) %MON exf_ustress_mean             =   6.3467741588106E-02
(PID.TID 0000.0001) %MON exf_ustress_sd               =   1.5501189304086E-01
(PID.TID 0000.0001) %MON exf_ustress_del2             =   3.9118536110994E-07
(PID.TID 0000.0001) %MON exf_vstress_max              =   3.9435409999009E-01
(PID.TID 0000.0001) %MON exf_vstress_min              =  -5.6463768772549E-01
(PID.TID 0000.0001) %MON exf_vstress_mean             =   1.0878072184966E-02
(PID.TID 0000.0001) %MON exf_vstress_sd               =   1.0157529607037E-01
(PID.TID 0000.0001) %MON exf_vstress_del2             =   2.8283476794587E-07
(PID.TID 0000.0001) %MON exf_hflux_max                =   1.1731329842047E+03
(PID.TID 0000.0001) %MON exf_hflux_min                =  -2.9120306774619E+02
(PID.TID 0000.0001) %MON exf_hflux_mean               =   2.3953333431750E+02
(PID.TID 0000.0001) %MON exf_hflux_sd                 =   1.4044448467335E+02
(PID.TID 0000.0001) %MON exf_hflux_del2               =   6.2580724354415E-02
(PID.TID 0000.0001) %MON exf_sflux_max                =   2.5724494689332E-07
(PID.TID 0000.0001) %MON exf_sflux_min                =  -1.7560217536022E-06
(PID.TID 0000.0001) %MON exf_sflux_mean               =   1.6824825126760E-08
(PID.TID 0000.0001) %MON exf_sflux_sd                 =   1.3268215659260E-07
(PID.TID 0000.0001) %MON exf_sflux_del2               =   3.2328053306103E-11
(PID.TID 0000.0001) %MON exf_uwind_max                =   1.9838058318203E+01
(PID.TID 0000.0001) %MON exf_uwind_min                =  -1.4843134291891E+01
(PID.TID 0000.0001) %MON exf_uwind_mean               =   2.4810107568109E+00
(PID.TID 0000.0001) %MON exf_uwind_sd                 =   6.6664048993956E+00
(PID.TID 0000.0001) %MON exf_uwind_del2               =   1.5866240977301E-03
(PID.TID 0000.0001) %MON exf_vwind_max                =   1.4466451329996E+01
(PID.TID 0000.0001) %MON exf_vwind_min                =  -1.2790626348860E+01
(PID.TID 0000.0001) %MON exf_vwind_mean               =   8.6210698507610E-01
(PID.TID 0000.0001) %MON exf_vwind_sd                 =   5.1764058980768E+00
(PID.TID 0000.0001) %MON exf_vwind_del2               =   1.1695220390209E-03
(PID.TID 0000.0001) %MON exf_wspeed_max               =   2.0268750699147E+01
(PID.TID 0000.0001) %MON exf_wspeed_min               =   7.7747230468362E-03
(PID.TID 0000.0001) %MON exf_wspeed_mean              =   7.7100599295278E+00
(PID.TID 0000.0001) %MON exf_wspeed_sd                =   4.3231644679041E+00
(PID.TID 0000.0001) %MON exf_wspeed_del2              =   1.9708991166183E-03
(PID.TID 0000.0001) %MON exf_atemp_max                =   2.9815585443142E+02
(PID.TID 0000.0001) %MON exf_atemp_min                =   2.7429575467771E+02
(PID.TID 0000.0001) %MON exf_atemp_mean               =   2.9067093470555E+02
(PID.TID 0000.0001) %MON exf_atemp_sd                 =   3.9450554917704E+00
(PID.TID 0000.0001) %MON exf_atemp_del2               =   3.8809531025252E-03
(PID.TID 0000.0001) %MON exf_aqh_max                  =   1.6752607817665E-02
(PID.TID 0000.0001) %MON exf_aqh_min                  =   2.7171169981137E-03
(PID.TID 0000.0001) %MON exf_aqh_mean                 =   9.4168909738609E-03
(PID.TID 0000.0001) %MON exf_aqh_sd                   =   2.8751455881814E-03
(PID.TID 0000.0001) %MON exf_aqh_del2                 =   2.1251128917364E-06
(PID.TID 0000.0001) %MON exf_lwflux_max               =   1.5340373196172E+02
(PID.TID 0000.0001) %MON exf_lwflux_min               =  -3.1012086971775E+00
(PID.TID 0000.0001) %MON exf_lwflux_mean              =   6.5383664526504E+01
(PID.TID 0000.0001) %MON exf_lwflux_sd                =   2.6621725945727E+01
(PID.TID 0000.0001) %MON exf_lwflux_del2              =   1.5459856618365E-02
(PID.TID 0000.0001) %MON exf_evap_max                 =   2.8325071481766E-07
(PID.TID 0000.0001) %MON exf_evap_min                 =  -9.7200975956503E-08
(PID.TID 0000.0001) %MON exf_evap_mean                =   5.9257022694527E-08
(PID.TID 0000.0001) %MON exf_evap_sd                  =   4.2048501058628E-08
(PID.TID 0000.0001) %MON exf_evap_del2                =   1.6370031967948E-11
(PID.TID 0000.0001) %MON exf_precip_max               =   1.9335577690933E-06
(PID.TID 0000.0001) %MON exf_precip_min               =   0.0000000000000E+00
(PID.TID 0000.0001) %MON exf_precip_mean              =   4.0843717995776E-08
(PID.TID 0000.0001) %MON exf_precip_sd                =   1.3798294822683E-07
(PID.TID 0000.0001) %MON exf_precip_del2              =   3.5021931552064E-11
(PID.TID 0000.0001) %MON exf_swflux_max               =   0.0000000000000E+00
(PID.TID 0000.0001) %MON exf_swflux_min               =   0.0000000000000E+00
(PID.TID 0000.0001) %MON exf_swflux_mean              =   0.0000000000000E+00
(PID.TID 0000.0001) %MON exf_swflux_sd                =   0.0000000000000E+00
(PID.TID 0000.0001) %MON exf_swflux_del2              =   0.0000000000000E+00
(PID.TID 0000.0001) %MON exf_swdown_max               =   0.0000000000000E+00
(PID.TID 0000.0001) %MON exf_swdown_min               =   0.0000000000000E+00
(PID.TID 0000.0001) %MON exf_swdown_mean              =   0.0000000000000E+00
(PID.TID 0000.0001) %MON exf_swdown_sd                =   0.0000000000000E+00
(PID.TID 0000.0001) %MON exf_swdown_del2              =   0.0000000000000E+00
(PID.TID 0000.0001) %MON exf_lwdown_max               =   4.1831268048121E+02
(PID.TID 0000.0001) %MON exf_lwdown_min               =   2.2402296162562E+02
(PID.TID 0000.0001) %MON exf_lwdown_mean              =   3.4965138987760E+02
(PID.TID 0000.0001) %MON exf_lwdown_sd                =   3.1755010022009E+01
(PID.TID 0000.0001) %MON exf_lwdown_del2              =   7.6679927332961E-02
(PID.TID 0000.0001) %MON exf_apressure_max            =   1.0280576882417E+05
(PID.TID 0000.0001) %MON exf_apressure_min            =   1.0001483343541E+05
(PID.TID 0000.0001) %MON exf_apressure_mean           =   1.0216685186254E+05
(PID.TID 0000.0001) %MON exf_apressure_sd             =   4.9875939384114E+02
(PID.TID 0000.0001) %MON exf_apressure_del2           =   2.2357440027017E+01
(PID.TID 0000.0001) %MON exf_runoff_max               =   4.4374798712073E-08
(PID.TID 0000.0001) %MON exf_runoff_min               =   0.0000000000000E+00
(PID.TID 0000.0001) %MON exf_runoff_mean              =   1.5884795719908E-09
(PID.TID 0000.0001) %MON exf_runoff_sd                =   5.3901959599983E-09
(PID.TID 0000.0001) %MON exf_runoff_del2              =   1.2741189756369E-12
(PID.TID 0000.0001) // =======================================================
(PID.TID 0000.0001) // End MONITOR EXF statistics
(PID.TID 0000.0001) // =======================================================
 cg2d: Sum(rhs),rhsMax =   1.33781218030143E+03  7.83611989656997E-02
(PID.TID 0000.0001)      cg2d_init_res =   1.62321646650723E+00
(PID.TID 0000.0001)      cg2d_iters(min,last) =      -1     313
(PID.TID 0000.0001)      cg2d_last_res =   6.52109974519931E-12
(PID.TID 0000.0001) // =======================================================
(PID.TID 0000.0001) // Begin MONITOR dynamic field statistics
(PID.TID 0000.0001) // =======================================================
(PID.TID 0000.0001) %MON time_tsnumber                =                    11
(PID.TID 0000.0001) %MON time_secondsf                =   2.6400000000000E+03
(PID.TID 0000.0001) %MON dynstat_eta_max              =   9.5059195010017E-01
(PID.TID 0000.0001) %MON dynstat_eta_min              =  -1.2800323933946E+00
(PID.TID 0000.0001) %MON dynstat_eta_mean             =  -4.5495114061326E-02
(PID.TID 0000.0001) %MON dynstat_eta_sd               =   2.5067939534469E-01
(PID.TID 0000.0001) %MON dynstat_eta_del2             =   2.3566214417994E-06
(PID.TID 0000.0001) %MON dynstat_uvel_max             =   1.2857270478675E+00
(PID.TID 0000.0001) %MON dynstat_uvel_min             =  -7.0064207399630E-01
(PID.TID 0000.0001) %MON dynstat_uvel_mean            =   1.9584303103352E-03
(PID.TID 0000.0001) %MON dynstat_uvel_sd              =   5.2267941879288E-02
(PID.TID 0000.0001) %MON dynstat_uvel_del2            =   5.2127378801281E-07
(PID.TID 0000.0001) %MON dynstat_vvel_max             =   2.4892628007229E+00
(PID.TID 0000.0001) %MON dynstat_vvel_min             =  -9.1892078166872E-01
(PID.TID 0000.0001) %MON dynstat_vvel_mean            =  -4.1864126217467E-03
(PID.TID 0000.0001) %MON dynstat_vvel_sd              =   4.9237120477442E-02
(PID.TID 0000.0001) %MON dynstat_vvel_del2            =   4.7646336685295E-07
(PID.TID 0000.0001) %MON dynstat_wvel_max             =   3.4220469063997E-02
(PID.TID 0000.0001) %MON dynstat_wvel_min             =  -3.1210497474995E-02
(PID.TID 0000.0001) %MON dynstat_wvel_mean            =  -1.4949646400671E-05
(PID.TID 0000.0001) %MON dynstat_wvel_sd              =   6.0487801003969E-04
(PID.TID 0000.0001) %MON dynstat_wvel_del2            =   7.4114244415001E-08
(PID.TID 0000.0001) %MON dynstat_theta_max            =   2.6142428130928E+01
(PID.TID 0000.0001) %MON dynstat_theta_min            =   1.4688649034731E+00
(PID.TID 0000.0001) %MON dynstat_theta_mean           =   5.5098644148606E+00
(PID.TID 0000.0001) %MON dynstat_theta_sd             =   4.7733200119338E+00
(PID.TID 0000.0001) %MON dynstat_theta_del2           =   4.0291762991517E-06
(PID.TID 0000.0001) %MON dynstat_salt_max             =   3.9156237683367E+01
(PID.TID 0000.0001) %MON dynstat_salt_min             =   3.3098070095682E+01
(PID.TID 0000.0001) %MON dynstat_salt_mean            =   3.5173365979423E+01
(PID.TID 0000.0001) %MON dynstat_salt_sd              =   3.7891312277615E-01
(PID.TID 0000.0001) %MON dynstat_salt_del2            =   5.2375138953317E-07
(PID.TID 0000.0001) %MON dynstat_sst_max              =   2.6138817163708E+01
(PID.TID 0000.0001) %MON dynstat_sst_min              =   3.9355737364338E+00
(PID.TID 0000.0001) %MON dynstat_sst_mean             =   1.9637329518313E+01
(PID.TID 0000.0001) %MON dynstat_sst_sd               =   3.6391419395421E+00
(PID.TID 0000.0001) %MON dynstat_sst_del2             =   1.9180586368182E-05
(PID.TID 0000.0001) %MON dynstat_sss_max              =   3.7336145461977E+01
(PID.TID 0000.0001) %MON dynstat_sss_min              =   3.3098070095682E+01
(PID.TID 0000.0001) %MON dynstat_sss_mean             =   3.5868362983141E+01
(PID.TID 0000.0001) %MON dynstat_sss_sd               =   4.8718982989090E-01
(PID.TID 0000.0001) %MON dynstat_sss_del2             =   4.9239659325628E-06
(PID.TID 0000.0001) %MON forcing_qnet_max             =   1.1911598647581E+03
(PID.TID 0000.0001) %MON forcing_qnet_min             =  -2.9604767521470E+02
(PID.TID 0000.0001) %MON forcing_qnet_mean            =   2.4163185588574E+02
(PID.TID 0000.0001) %MON forcing_qnet_sd              =   1.4215033792746E+02
(PID.TID 0000.0001) %MON forcing_qnet_del2            =   1.6659120346687E-03
(PID.TID 0000.0001) %MON forcing_qsw_max              =   0.0000000000000E+00
(PID.TID 0000.0001) %MON forcing_qsw_min              =   0.0000000000000E+00
(PID.TID 0000.0001) %MON forcing_qsw_mean             =   0.0000000000000E+00
(PID.TID 0000.0001) %MON forcing_qsw_sd               =   0.0000000000000E+00
(PID.TID 0000.0001) %MON forcing_qsw_del2             =   0.0000000000000E+00
(PID.TID 0000.0001) %MON forcing_empmr_max            =   2.5724494689332E-04
(PID.TID 0000.0001) %MON forcing_empmr_min            =  -1.7560217536022E-03
(PID.TID 0000.0001) %MON forcing_empmr_mean           =   1.6824825126760E-05
(PID.TID 0000.0001) %MON forcing_empmr_sd             =   1.3268215659260E-04
(PID.TID 0000.0001) %MON forcing_empmr_del2           =   2.9973452018729E-09
(PID.TID 0000.0001) %MON forcing_fu_max               =   8.6616482192079E-01
(PID.TID 0000.0001) %MON forcing_fu_min               =  -4.0280201453685E-01
(PID.TID 0000.0001) %MON forcing_fu_mean              =   6.3528006148442E-02
(PID.TID 0000.0001) %MON forcing_fu_sd                =   1.5507216797711E-01
(PID.TID 0000.0001) %MON forcing_fu_del2              =   3.5173921052134E-07
(PID.TID 0000.0001) %MON forcing_fv_max               =   3.9420288274555E-01
(PID.TID 0000.0001) %MON forcing_fv_min               =  -5.6876827924645E-01
(PID.TID 0000.0001) %MON forcing_fv_mean              =   1.0860084455188E-02
(PID.TID 0000.0001) %MON forcing_fv_sd                =   1.0170729874541E-01
(PID.TID 0000.0001) %MON forcing_fv_del2              =   2.6205780760261E-07
(PID.TID 0000.0001) %MON trAdv_CFL_u_max              =   7.8006040865835E-02
(PID.TID 0000.0001) %MON trAdv_CFL_v_max              =   1.5728010996675E-01
(PID.TID 0000.0001) %MON trAdv_CFL_w_max              =   5.1062337088279E-01
(PID.TID 0000.0001) %MON advcfl_uvel_max              =   7.8006039803712E-02
(PID.TID 0000.0001) %MON advcfl_vvel_max              =   1.5732587240546E-01
(PID.TID 0000.0001) %MON advcfl_wvel_max              =   5.0211298136808E-01
(PID.TID 0000.0001) %MON advcfl_W_hf_max              =   5.1062337088279E-01
(PID.TID 0000.0001) %MON pe_b_mean                    =  -1.0258715919888E-03
(PID.TID 0000.0001) %MON ke_max                       =   2.8065468765176E+00
(PID.TID 0000.0001) %MON ke_mean                      =   2.5697127141787E-03
(PID.TID 0000.0001) %MON ke_vol                       =   4.5818637279720E+16
(PID.TID 0000.0001) %MON vort_r_min                   =  -5.1778968530393E-04
(PID.TID 0000.0001) %MON vort_r_max                   =   7.1667093777920E-04
(PID.TID 0000.0001) %MON vort_a_mean                  =   8.2147623060782E-05
(PID.TID 0000.0001) %MON vort_a_sd                    =   1.0145156012914E-05
(PID.TID 0000.0001) %MON vort_p_mean                  =   8.4848844369001E-05
(PID.TID 0000.0001) %MON vort_p_sd                    =   3.4976451469543E-05
(PID.TID 0000.0001) %MON surfExpan_theta_mean         =  -3.5587967690319E-04
(PID.TID 0000.0001) %MON surfExpan_salt_mean          =  -9.4371853590411E-04
(PID.TID 0000.0001) // =======================================================
(PID.TID 0000.0001) // End MONITOR dynamic field statistics
(PID.TID 0000.0001) // =======================================================
(PID.TID 0000.0001) // =======================================================
(PID.TID 0000.0001) // Begin OBCS MONITOR field statistics
(PID.TID 0000.0001) // =======================================================
(PID.TID 0000.0001) %MON obc_N_vVel_max               =   6.9462511267569E-01
(PID.TID 0000.0001) %MON obc_N_vVel_min               =  -3.2386652640102E-01
(PID.TID 0000.0001) %MON obc_N_vVel_mean              =   1.3498598564145E-02
(PID.TID 0000.0001) %MON obc_N_vVel_sd                =   6.4587781615047E-02
(PID.TID 0000.0001) %MON obc_N_vVel_Int               =   1.9323357857342E+08
(PID.TID 0000.0001) %MON obc_S_vVel_max               =   2.4892628007229E+00
(PID.TID 0000.0001) %MON obc_S_vVel_min               =  -2.6302812209586E-01
(PID.TID 0000.0001) %MON obc_S_vVel_mean              =  -3.5591813948131E-03
(PID.TID 0000.0001) %MON obc_S_vVel_sd                =   3.6260055291612E-02
(PID.TID 0000.0001) %MON obc_S_vVel_Int               =  -1.0835180212003E+08
(PID.TID 0000.0001) %MON obc_N_theta_max              =   1.6389891921106E+01
(PID.TID 0000.0001) %MON obc_N_theta_min              =   1.8895912667048E+00
(PID.TID 0000.0001) %MON obc_N_theta_mean             =   5.1588992762384E+00
(PID.TID 0000.0001) %MON obc_N_theta_sd               =   3.4826317304761E+00
(PID.TID 0000.0001) %MON obc_S_theta_max              =   2.5543811072233E+01
(PID.TID 0000.0001) %MON obc_S_theta_min              =   1.4633000000465E+00
(PID.TID 0000.0001) %MON obc_S_theta_mean             =   5.4595489249409E+00
(PID.TID 0000.0001) %MON obc_S_theta_sd               =   5.3558944527081E+00
(PID.TID 0000.0001) %MON obc_N_salt_max               =   3.5910863155963E+01
(PID.TID 0000.0001) %MON obc_N_salt_min               =   3.3295074599012E+01
(PID.TID 0000.0001) %MON obc_N_salt_mean              =   3.5114561060497E+01
(PID.TID 0000.0001) %MON obc_N_salt_sd                =   3.0984801722386E-01
(PID.TID 0000.0001) %MON obc_S_salt_max               =   3.7318270902396E+01
(PID.TID 0000.0001) %MON obc_S_salt_min               =   3.4844694888241E+01
(PID.TID 0000.0001) %MON obc_S_salt_mean              =   3.5168372147751E+01
(PID.TID 0000.0001) %MON obc_S_salt_sd                =   4.5716724612664E-01
(PID.TID 0000.0001) // =======================================================
(PID.TID 0000.0001) // End OBCS MONITOR field statistics
(PID.TID 0000.0001) // =======================================================
(PID.TID 0000.0001) // =======================================================
(PID.TID 0000.0001) // Begin MONITOR EXF statistics
(PID.TID 0000.0001) // =======================================================
(PID.TID 0000.0001) %MON exf_tsnumber                 =                    11
(PID.TID 0000.0001) %MON exf_time_sec                 =   2.6400000000000E+03
(PID.TID 0000.0001) %MON exf_ustress_max              =   8.7862421555433E-01
(PID.TID 0000.0001) %MON exf_ustress_min              =  -4.0040398944512E-01
(PID.TID 0000.0001) %MON exf_ustress_mean             =   6.3638768078566E-02
(PID.TID 0000.0001) %MON exf_ustress_sd               =   1.5519593345170E-01
(PID.TID 0000.0001) %MON exf_ustress_del2             =   4.0095036308522E-07
(PID.TID 0000.0001) %MON exf_vstress_max              =   3.9733359274932E-01
(PID.TID 0000.0001) %MON exf_vstress_min              =  -5.6583488071579E-01
(PID.TID 0000.0001) %MON exf_vstress_mean             =   1.0940760186851E-02
(PID.TID 0000.0001) %MON exf_vstress_sd               =   1.0176008948767E-01
(PID.TID 0000.0001) %MON exf_vstress_del2             =   2.9485638396988E-07
(PID.TID 0000.0001) %MON exf_hflux_max                =   1.1798908495880E+03
(PID.TID 0000.0001) %MON exf_hflux_min                =  -2.9385934946828E+02
(PID.TID 0000.0001) %MON exf_hflux_mean               =   2.3956692564559E+02
(PID.TID 0000.0001) %MON exf_hflux_sd                 =   1.4061042665975E+02
(PID.TID 0000.0001) %MON exf_hflux_del2               =   6.2622086733248E-02
(PID.TID 0000.0001) %MON exf_sflux_max                =   2.5797434337480E-07
(PID.TID 0000.0001) %MON exf_sflux_min                =  -1.7748318808920E-06
(PID.TID 0000.0001) %MON exf_sflux_mean               =   1.6590764286847E-08
(PID.TID 0000.0001) %MON exf_sflux_sd                 =   1.3237828589707E-07
(PID.TID 0000.0001) %MON exf_sflux_del2               =   3.2459759984910E-11
(PID.TID 0000.0001) %MON exf_uwind_max                =   1.9949284177620E+01
(PID.TID 0000.0001) %MON exf_uwind_min                =  -1.4818376534574E+01
(PID.TID 0000.0001) %MON exf_uwind_mean               =   2.4829242650110E+00
(PID.TID 0000.0001) %MON exf_uwind_sd                 =   6.6673503083919E+00
(PID.TID 0000.0001) %MON exf_uwind_del2               =   1.5875995613651E-03
(PID.TID 0000.0001) %MON exf_vwind_max                =   1.4523447176336E+01
(PID.TID 0000.0001) %MON exf_vwind_min                =  -1.2804880664873E+01
(PID.TID 0000.0001) %MON exf_vwind_mean               =   8.6380515320950E-01
(PID.TID 0000.0001) %MON exf_vwind_sd                 =   5.1783773743176E+00
(PID.TID 0000.0001) %MON exf_vwind_del2               =   1.1696728365782E-03
(PID.TID 0000.0001) %MON exf_wspeed_max               =   2.0257116325955E+01
(PID.TID 0000.0001) %MON exf_wspeed_min               =   4.6371176576438E-03
(PID.TID 0000.0001) %MON exf_wspeed_mean              =   7.7110243401709E+00
(PID.TID 0000.0001) %MON exf_wspeed_sd                =   4.3266994625743E+00
(PID.TID 0000.0001) %MON exf_wspeed_del2              =   1.9717665696289E-03
(PID.TID 0000.0001) %MON exf_atemp_max                =   2.9815365710274E+02
(PID.TID 0000.0001) %MON exf_atemp_min                =   2.7427015333087E+02
(PID.TID 0000.0001) %MON exf_atemp_mean               =   2.9066781349965E+02
(PID.TID 0000.0001) %MON exf_atemp_sd                 =   3.9458014047943E+00
(PID.TID 0000.0001) %MON exf_atemp_del2               =   3.8803426483344E-03
(PID.TID 0000.0001) %MON exf_aqh_max                  =   1.6745621567335E-02
(PID.TID 0000.0001) %MON exf_aqh_min                  =   2.7148222887495E-03
(PID.TID 0000.0001) %MON exf_aqh_mean                 =   9.4157028210143E-03
(PID.TID 0000.0001) %MON exf_aqh_sd                   =   2.8761931402288E-03
(PID.TID 0000.0001) %MON exf_aqh_del2                 =   2.1248015539737E-06
(PID.TID 0000.0001) %MON exf_lwflux_max               =   1.5367531589462E+02
(PID.TID 0000.0001) %MON exf_lwflux_min               =  -1.6583077358429E+00
(PID.TID 0000.0001) %MON exf_lwflux_mean              =   6.5365630525701E+01
(PID.TID 0000.0001) %MON exf_lwflux_sd                =   2.6559251678451E+01
(PID.TID 0000.0001) %MON exf_lwflux_del2              =   1.5455196534906E-02
(PID.TID 0000.0001) %MON exf_evap_max                 =   2.8512505827773E-07
(PID.TID 0000.0001) %MON exf_evap_min                 =  -9.8058093091496E-08
(PID.TID 0000.0001) %MON exf_evap_mean                =   5.9266097169502E-08
(PID.TID 0000.0001) %MON exf_evap_sd                  =   4.2073726786875E-08
(PID.TID 0000.0001) %MON exf_evap_del2                =   1.6379859072167E-11
(PID.TID 0000.0001) %MON exf_precip_max               =   1.9530084605844E-06
(PID.TID 0000.0001) %MON exf_precip_min               =   0.0000000000000E+00
(PID.TID 0000.0001) %MON exf_precip_mean              =   4.1086853310665E-08
(PID.TID 0000.0001) %MON exf_precip_sd                =   1.3784056296284E-07
(PID.TID 0000.0001) %MON exf_precip_del2              =   3.5267194958180E-11
(PID.TID 0000.0001) %MON exf_swflux_max               =   0.0000000000000E+00
(PID.TID 0000.0001) %MON exf_swflux_min               =   0.0000000000000E+00
(PID.TID 0000.0001) %MON exf_swflux_mean              =   0.0000000000000E+00
(PID.TID 0000.0001) %MON exf_swflux_sd                =   0.0000000000000E+00
(PID.TID 0000.0001) %MON exf_swflux_del2              =   0.0000000000000E+00
(PID.TID 0000.0001) %MON exf_swdown_max               =   0.0000000000000E+00
(PID.TID 0000.0001) %MON exf_swdown_min               =   0.0000000000000E+00
(PID.TID 0000.0001) %MON exf_swdown_mean              =   0.0000000000000E+00
(PID.TID 0000.0001) %MON exf_swdown_sd                =   0.0000000000000E+00
(PID.TID 0000.0001) %MON exf_swdown_del2              =   0.0000000000000E+00
(PID.TID 0000.0001) %MON exf_lwdown_max               =   4.1834380446450E+02
(PID.TID 0000.0001) %MON exf_lwdown_min               =   2.2446253938019E+02
(PID.TID 0000.0001) %MON exf_lwdown_mean              =   3.4966588105516E+02
(PID.TID 0000.0001) %MON exf_lwdown_sd                =   3.1662575468583E+01
(PID.TID 0000.0001) %MON exf_lwdown_del2              =   7.6676438741032E-02
(PID.TID 0000.0001) %MON exf_apressure_max            =   1.0280887954977E+05
(PID.TID 0000.0001) %MON exf_apressure_min            =   1.0001557374934E+05
(PID.TID 0000.0001) %MON exf_apressure_mean           =   1.0216762916888E+05
(PID.TID 0000.0001) %MON exf_apressure_sd             =   4.9875562807510E+02
(PID.TID 0000.0001) %MON exf_apressure_del2           =   2.2357627756461E+01
(PID.TID 0000.0001) %MON exf_runoff_max               =   4.4374798712073E-08
(PID.TID 0000.0001) %MON exf_runoff_min               =   0.0000000000000E+00
(PID.TID 0000.0001) %MON exf_runoff_mean              =   1.5884795719908E-09
(PID.TID 0000.0001) %MON exf_runoff_sd                =   5.3901959599983E-09
(PID.TID 0000.0001) %MON exf_runoff_del2              =   1.2741189756369E-12
(PID.TID 0000.0001) // =======================================================
(PID.TID 0000.0001) // End MONITOR EXF statistics
(PID.TID 0000.0001) // =======================================================
 cg2d: Sum(rhs),rhsMax =   1.53870977442444E+03  8.01670933085628E-02
(PID.TID 0000.0001)      cg2d_init_res =   1.52891998575204E+00
(PID.TID 0000.0001)      cg2d_iters(min,last) =      -1     312
(PID.TID 0000.0001)      cg2d_last_res =   6.70720372964622E-12
(PID.TID 0000.0001) // =======================================================
(PID.TID 0000.0001) // Begin MONITOR dynamic field statistics
(PID.TID 0000.0001) // =======================================================
(PID.TID 0000.0001) %MON time_tsnumber                =                    12
(PID.TID 0000.0001) %MON time_secondsf                =   2.8800000000000E+03
(PID.TID 0000.0001) %MON dynstat_eta_max              =   8.4151160215685E-01
(PID.TID 0000.0001) %MON dynstat_eta_min              =  -1.1245383079730E+00
(PID.TID 0000.0001) %MON dynstat_eta_mean             =  -5.2327058854363E-02
(PID.TID 0000.0001) %MON dynstat_eta_sd               =   2.6040296474458E-01
(PID.TID 0000.0001) %MON dynstat_eta_del2             =   2.3330128305128E-06
(PID.TID 0000.0001) %MON dynstat_uvel_max             =   1.2794101118474E+00
(PID.TID 0000.0001) %MON dynstat_uvel_min             =  -7.0055749702101E-01
(PID.TID 0000.0001) %MON dynstat_uvel_mean            =   1.7277108395654E-03
(PID.TID 0000.0001) %MON dynstat_uvel_sd              =   5.2268339919730E-02
(PID.TID 0000.0001) %MON dynstat_uvel_del2            =   5.2962135897200E-07
(PID.TID 0000.0001) %MON dynstat_vvel_max             =   2.5498895951784E+00
(PID.TID 0000.0001) %MON dynstat_vvel_min             =  -9.1866994987044E-01
(PID.TID 0000.0001) %MON dynstat_vvel_mean            =  -4.4174833520380E-03
(PID.TID 0000.0001) %MON dynstat_vvel_sd              =   4.9323636089000E-02
(PID.TID 0000.0001) %MON dynstat_vvel_del2            =   4.8386319078529E-07
(PID.TID 0000.0001) %MON dynstat_wvel_max             =   3.5548792624394E-02
(PID.TID 0000.0001) %MON dynstat_wvel_min             =  -3.1933357655424E-02
(PID.TID 0000.0001) %MON dynstat_wvel_mean            =  -1.6058314563893E-05
(PID.TID 0000.0001) %MON dynstat_wvel_sd              =   6.0698966128422E-04
(PID.TID 0000.0001) %MON dynstat_wvel_del2            =   7.2463156269919E-08
(PID.TID 0000.0001) %MON dynstat_theta_max            =   2.6144134826740E+01
(PID.TID 0000.0001) %MON dynstat_theta_min            =   1.4688650790830E+00
(PID.TID 0000.0001) %MON dynstat_theta_mean           =   5.5098743312663E+00
(PID.TID 0000.0001) %MON dynstat_theta_sd             =   4.7733170300522E+00
(PID.TID 0000.0001) %MON dynstat_theta_del2           =   4.0316464112797E-06
(PID.TID 0000.0001) %MON dynstat_salt_max             =   3.9152189446829E+01
(PID.TID 0000.0001) %MON dynstat_salt_min             =   3.3099119044518E+01
(PID.TID 0000.0001) %MON dynstat_salt_mean            =   3.5173366186873E+01
(PID.TID 0000.0001) %MON dynstat_salt_sd              =   3.7891401432135E-01
(PID.TID 0000.0001) %MON dynstat_salt_del2            =   5.2637356171500E-07
(PID.TID 0000.0001) %MON dynstat_sst_max              =   2.6140359783952E+01
(PID.TID 0000.0001) %MON dynstat_sst_min              =   3.9215425631045E+00
(PID.TID 0000.0001) %MON dynstat_sst_mean             =   1.9636640526069E+01
(PID.TID 0000.0001) %MON dynstat_sst_sd               =   3.6391790151417E+00
(PID.TID 0000.0001) %MON dynstat_sst_del2             =   1.9216494783837E-05
(PID.TID 0000.0001) %MON dynstat_sss_max              =   3.7336222050915E+01
(PID.TID 0000.0001) %MON dynstat_sss_min              =   3.3099119044518E+01
(PID.TID 0000.0001) %MON dynstat_sss_mean             =   3.5868392797310E+01
(PID.TID 0000.0001) %MON dynstat_sss_sd               =   4.8718646009660E-01
(PID.TID 0000.0001) %MON dynstat_sss_del2             =   4.9175281602179E-06
(PID.TID 0000.0001) %MON forcing_qnet_max             =   1.1980498095407E+03
(PID.TID 0000.0001) %MON forcing_qnet_min             =  -2.9874040758501E+02
(PID.TID 0000.0001) %MON forcing_qnet_mean            =   2.4164992659807E+02
(PID.TID 0000.0001) %MON forcing_qnet_sd              =   1.4229413308771E+02
(PID.TID 0000.0001) %MON forcing_qnet_del2            =   1.6662581782930E-03
(PID.TID 0000.0001) %MON forcing_qsw_max              =   0.0000000000000E+00
(PID.TID 0000.0001) %MON forcing_qsw_min              =   0.0000000000000E+00
(PID.TID 0000.0001) %MON forcing_qsw_mean             =   0.0000000000000E+00
(PID.TID 0000.0001) %MON forcing_qsw_sd               =   0.0000000000000E+00
(PID.TID 0000.0001) %MON forcing_qsw_del2             =   0.0000000000000E+00
(PID.TID 0000.0001) %MON forcing_empmr_max            =   2.5797434337480E-04
(PID.TID 0000.0001) %MON forcing_empmr_min            =  -1.7748318808920E-03
(PID.TID 0000.0001) %MON forcing_empmr_mean           =   1.6590764286847E-05
(PID.TID 0000.0001) %MON forcing_empmr_sd             =   1.3237828589707E-04
(PID.TID 0000.0001) %MON forcing_empmr_del2           =   2.8534492249875E-09
(PID.TID 0000.0001) %MON forcing_fu_max               =   8.7828248320477E-01
(PID.TID 0000.0001) %MON forcing_fu_min               =  -4.0039803752138E-01
(PID.TID 0000.0001) %MON forcing_fu_mean              =   6.3699545801633E-02
(PID.TID 0000.0001) %MON forcing_fu_sd                =   1.5525635122159E-01
(PID.TID 0000.0001) %MON forcing_fu_del2              =   3.6215764746328E-07
(PID.TID 0000.0001) %MON forcing_fv_max               =   3.9730421009682E-01
(PID.TID 0000.0001) %MON forcing_fv_min               =  -5.7023738631614E-01
(PID.TID 0000.0001) %MON forcing_fv_mean              =   1.0923154638346E-02
(PID.TID 0000.0001) %MON forcing_fv_sd                =   1.0189220846233E-01
(PID.TID 0000.0001) %MON forcing_fv_del2              =   2.7380037722172E-07
(PID.TID 0000.0001) %MON trAdv_CFL_u_max              =   7.7622787538351E-02
(PID.TID 0000.0001) %MON trAdv_CFL_v_max              =   1.6111071752499E-01
(PID.TID 0000.0001) %MON trAdv_CFL_w_max              =   5.2036326691735E-01
(PID.TID 0000.0001) %MON advcfl_uvel_max              =   7.7622786481447E-02
(PID.TID 0000.0001) %MON advcfl_vvel_max              =   1.6115759452258E-01
(PID.TID 0000.0001) %MON advcfl_wvel_max              =   5.1169054580206E-01
(PID.TID 0000.0001) %MON advcfl_W_hf_max              =   5.2036326691735E-01
(PID.TID 0000.0001) %MON pe_b_mean                    =  -1.1854435019519E-03
(PID.TID 0000.0001) %MON ke_max                       =   2.9505855454085E+00
(PID.TID 0000.0001) %MON ke_mean                      =   2.5745343311174E-03
(PID.TID 0000.0001) %MON ke_vol                       =   4.5818637279720E+16
(PID.TID 0000.0001) %MON vort_r_min                   =  -5.1796003379380E-04
(PID.TID 0000.0001) %MON vort_r_max                   =   7.4282644989652E-04
(PID.TID 0000.0001) %MON vort_a_mean                  =   8.2147622239582E-05
(PID.TID 0000.0001) %MON vort_a_sd                    =   1.0148597615130E-05
(PID.TID 0000.0001) %MON vort_p_mean                  =   8.4848843520798E-05
(PID.TID 0000.0001) %MON vort_p_sd                    =   3.4979226812677E-05
(PID.TID 0000.0001) %MON surfExpan_theta_mean         =  -3.9736437797860E-04
(PID.TID 0000.0001) %MON surfExpan_salt_mean          =  -1.0085495385959E-03
(PID.TID 0000.0001) // =======================================================
(PID.TID 0000.0001) // End MONITOR dynamic field statistics
(PID.TID 0000.0001) // =======================================================
(PID.TID 0000.0001) // =======================================================
(PID.TID 0000.0001) // Begin OBCS MONITOR field statistics
(PID.TID 0000.0001) // =======================================================
(PID.TID 0000.0001) %MON obc_N_vVel_max               =   6.9445057130833E-01
(PID.TID 0000.0001) %MON obc_N_vVel_min               =  -3.2418597803533E-01
(PID.TID 0000.0001) %MON obc_N_vVel_mean              =   1.3447344925231E-02
(PID.TID 0000.0001) %MON obc_N_vVel_sd                =   6.4566341463581E-02
(PID.TID 0000.0001) %MON obc_N_vVel_Int               =   1.9249987840335E+08
(PID.TID 0000.0001) %MON obc_S_vVel_max               =   2.5498895951784E+00
(PID.TID 0000.0001) %MON obc_S_vVel_min               =  -2.6309677804153E-01
(PID.TID 0000.0001) %MON obc_S_vVel_mean              =  -4.2444228596303E-03
(PID.TID 0000.0001) %MON obc_S_vVel_sd                =   3.6332683878914E-02
(PID.TID 0000.0001) %MON obc_S_vVel_Int               =  -1.2921253928519E+08
(PID.TID 0000.0001) %MON obc_N_theta_max              =   1.6389803818919E+01
(PID.TID 0000.0001) %MON obc_N_theta_min              =   1.8895913157701E+00
(PID.TID 0000.0001) %MON obc_N_theta_mean             =   5.1588918920883E+00
(PID.TID 0000.0001) %MON obc_N_theta_sd               =   3.4826224400858E+00
(PID.TID 0000.0001) %MON obc_S_theta_max              =   2.5543708323453E+01
(PID.TID 0000.0001) %MON obc_S_theta_min              =   1.4633003963337E+00
(PID.TID 0000.0001) %MON obc_S_theta_mean             =   5.4595481199164E+00
(PID.TID 0000.0001) %MON obc_S_theta_sd               =   5.3558905817403E+00
(PID.TID 0000.0001) %MON obc_N_salt_max               =   3.5910862747600E+01
(PID.TID 0000.0001) %MON obc_N_salt_min               =   3.3295080101645E+01
(PID.TID 0000.0001) %MON obc_N_salt_mean              =   3.5114560764510E+01
(PID.TID 0000.0001) %MON obc_N_salt_sd                =   3.0984789812930E-01
(PID.TID 0000.0001) %MON obc_S_salt_max               =   3.7318264018012E+01
(PID.TID 0000.0001) %MON obc_S_salt_min               =   3.4844694940461E+01
(PID.TID 0000.0001) %MON obc_S_salt_mean              =   3.5168372075834E+01
(PID.TID 0000.0001) %MON obc_S_salt_sd                =   4.5716689510142E-01
(PID.TID 0000.0001) // =======================================================
(PID.TID 0000.0001) // End OBCS MONITOR field statistics
(PID.TID 0000.0001) // =======================================================
(PID.TID 0000.0001) // =======================================================
(PID.TID 0000.0001) // Begin MONITOR EXF statistics
(PID.TID 0000.0001) // =======================================================
(PID.TID 0000.0001) %MON exf_tsnumber                 =                    12
(PID.TID 0000.0001) %MON exf_time_sec                 =   2.8800000000000E+03
(PID.TID 0000.0001) %MON exf_ustress_max              =   8.9135836301068E-01
(PID.TID 0000.0001) %MON exf_ustress_min              =  -3.9811112254317E-01
(PID.TID 0000.0001) %MON exf_ustress_mean             =   6.3833675517232E-02
(PID.TID 0000.0001) %MON exf_ustress_sd               =   1.5545164194263E-01
(PID.TID 0000.0001) %MON exf_ustress_del2             =   4.1446362680548E-07
(PID.TID 0000.0001) %MON exf_vstress_max              =   4.0123306351281E-01
(PID.TID 0000.0001) %MON exf_vstress_min              =  -5.6732270817431E-01
(PID.TID 0000.0001) %MON exf_vstress_mean             =   1.1006221221842E-02
(PID.TID 0000.0001) %MON exf_vstress_sd               =   1.0200808983228E-01
(PID.TID 0000.0001) %MON exf_vstress_del2             =   3.0986479402052E-07
(PID.TID 0000.0001) %MON exf_hflux_max                =   1.1867748704070E+03
(PID.TID 0000.0001) %MON exf_hflux_min                =  -2.9657346059872E+02
(PID.TID 0000.0001) %MON exf_hflux_mean               =   2.3962292621175E+02
(PID.TID 0000.0001) %MON exf_hflux_sd                 =   1.4081508734844E+02
(PID.TID 0000.0001) %MON exf_hflux_del2               =   6.2671911899024E-02
(PID.TID 0000.0001) %MON exf_sflux_max                =   2.5873022624110E-07
(PID.TID 0000.0001) %MON exf_sflux_min                =  -1.7936416474227E-06
(PID.TID 0000.0001) %MON exf_sflux_mean               =   1.6364029942366E-08
(PID.TID 0000.0001) %MON exf_sflux_sd                 =   1.3238293821071E-07
(PID.TID 0000.0001) %MON exf_sflux_del2               =   3.2679375068618E-11
(PID.TID 0000.0001) %MON exf_uwind_max                =   2.0064596912068E+01
(PID.TID 0000.0001) %MON exf_uwind_min                =  -1.4793962520805E+01
(PID.TID 0000.0001) %MON exf_uwind_mean               =   2.4848591020084E+00
(PID.TID 0000.0001) %MON exf_uwind_sd                 =   6.6689937603785E+00
(PID.TID 0000.0001) %MON exf_uwind_del2               =   1.5887172511024E-03
(PID.TID 0000.0001) %MON exf_vwind_max                =   1.4590203767144E+01
(PID.TID 0000.0001) %MON exf_vwind_min                =  -1.2822933990640E+01
(PID.TID 0000.0001) %MON exf_vwind_mean               =   8.6548003367529E-01
(PID.TID 0000.0001) %MON exf_vwind_sd                 =   5.1818302981132E+00
(PID.TID 0000.0001) %MON exf_vwind_del2               =   1.1701689837206E-03
(PID.TID 0000.0001) %MON exf_wspeed_max               =   2.0248936203892E+01
(PID.TID 0000.0001) %MON exf_wspeed_min               =   1.2002007817366E-02
(PID.TID 0000.0001) %MON exf_wspeed_mean              =   7.7130768537366E+00
(PID.TID 0000.0001) %MON exf_wspeed_sd                =   4.3311509911670E+00
(PID.TID 0000.0001) %MON exf_wspeed_del2              =   1.9729513210614E-03
(PID.TID 0000.0001) %MON exf_atemp_max                =   2.9815145977406E+02
(PID.TID 0000.0001) %MON exf_atemp_min                =   2.7424455198402E+02
(PID.TID 0000.0001) %MON exf_atemp_mean               =   2.9066469229375E+02
(PID.TID 0000.0001) %MON exf_atemp_sd                 =   3.9466895585715E+00
(PID.TID 0000.0001) %MON exf_atemp_del2               =   3.8797387882586E-03
(PID.TID 0000.0001) %MON exf_aqh_max                  =   1.6738635317005E-02
(PID.TID 0000.0001) %MON exf_aqh_min                  =   2.7125275793852E-03
(PID.TID 0000.0001) %MON exf_aqh_mean                 =   9.4145146681678E-03
(PID.TID 0000.0001) %MON exf_aqh_sd                   =   2.8774128316627E-03
(PID.TID 0000.0001) %MON exf_aqh_del2                 =   2.1245023573126E-06
(PID.TID 0000.0001) %MON exf_lwflux_max               =   1.5394662922929E+02
(PID.TID 0000.0001) %MON exf_lwflux_min               =  -2.5803866158833E-01
(PID.TID 0000.0001) %MON exf_lwflux_mean              =   6.5347775387835E+01
(PID.TID 0000.0001) %MON exf_lwflux_sd                =   2.6515917676783E+01
(PID.TID 0000.0001) %MON exf_lwflux_del2              =   1.5452250139234E-02
(PID.TID 0000.0001) %MON exf_evap_max                 =   2.8719107239538E-07
(PID.TID 0000.0001) %MON exf_evap_min                 =  -9.8931424028005E-08
(PID.TID 0000.0001) %MON exf_evap_mean                =   5.9282498139909E-08
(PID.TID 0000.0001) %MON exf_evap_sd                  =   4.2110534062512E-08
(PID.TID 0000.0001) %MON exf_evap_del2                =   1.6392563223041E-11
(PID.TID 0000.0001) %MON exf_precip_max               =   1.9724591520756E-06
(PID.TID 0000.0001) %MON exf_precip_min               =   0.0000000000000E+00
(PID.TID 0000.0001) %MON exf_precip_mean              =   4.1329988625553E-08
(PID.TID 0000.0001) %MON exf_precip_sd                =   1.3800385713036E-07
(PID.TID 0000.0001) %MON exf_precip_del2              =   3.5594840159680E-11
(PID.TID 0000.0001) %MON exf_swflux_max               =   0.0000000000000E+00
(PID.TID 0000.0001) %MON exf_swflux_min               =   0.0000000000000E+00
(PID.TID 0000.0001) %MON exf_swflux_mean              =   0.0000000000000E+00
(PID.TID 0000.0001) %MON exf_swflux_sd                =   0.0000000000000E+00
(PID.TID 0000.0001) %MON exf_swflux_del2              =   0.0000000000000E+00
(PID.TID 0000.0001) %MON exf_swdown_max               =   0.0000000000000E+00
(PID.TID 0000.0001) %MON exf_swdown_min               =   0.0000000000000E+00
(PID.TID 0000.0001) %MON exf_swdown_mean              =   0.0000000000000E+00
(PID.TID 0000.0001) %MON exf_swdown_sd                =   0.0000000000000E+00
(PID.TID 0000.0001) %MON exf_swdown_del2              =   0.0000000000000E+00
(PID.TID 0000.0001) %MON exf_lwdown_max               =   4.1837492844779E+02
(PID.TID 0000.0001) %MON exf_lwdown_min               =   2.2467592878122E+02
(PID.TID 0000.0001) %MON exf_lwdown_mean              =   3.4968037223272E+02
(PID.TID 0000.0001) %MON exf_lwdown_sd                =   3.1587075242338E+01
(PID.TID 0000.0001) %MON exf_lwdown_del2              =   7.6673309753702E-02
(PID.TID 0000.0001) %MON exf_apressure_max            =   1.0281199027536E+05
(PID.TID 0000.0001) %MON exf_apressure_min            =   1.0001627345309E+05
(PID.TID 0000.0001) %MON exf_apressure_mean           =   1.0216840647522E+05
(PID.TID 0000.0001) %MON exf_apressure_sd             =   4.9879168626282E+02
(PID.TID 0000.0001) %MON exf_apressure_del2           =   2.2357815529035E+01
(PID.TID 0000.0001) %MON exf_runoff_max               =   4.4374798712073E-08
(PID.TID 0000.0001) %MON exf_runoff_min               =   0.0000000000000E+00
(PID.TID 0000.0001) %MON exf_runoff_mean              =   1.5884795719908E-09
(PID.TID 0000.0001) %MON exf_runoff_sd                =   5.3901959599983E-09
(PID.TID 0000.0001) %MON exf_runoff_del2              =   1.2741189756369E-12
(PID.TID 0000.0001) // =======================================================
(PID.TID 0000.0001) // End MONITOR EXF statistics
(PID.TID 0000.0001) // =======================================================
 cg2d: Sum(rhs),rhsMax =   1.75193148624879E+03  8.08135408947632E-02
(PID.TID 0000.0001)      cg2d_init_res =   1.44781626656832E+00
(PID.TID 0000.0001)      cg2d_iters(min,last) =      -1     312
(PID.TID 0000.0001)      cg2d_last_res =   6.39116762622322E-12
(PID.TID 0000.0001) // =======================================================
(PID.TID 0000.0001) // Begin MONITOR dynamic field statistics
(PID.TID 0000.0001) // =======================================================
(PID.TID 0000.0001) %MON time_tsnumber                =                    13
(PID.TID 0000.0001) %MON time_secondsf                =   3.1200000000000E+03
(PID.TID 0000.0001) %MON dynstat_eta_max              =   8.0322300595389E-01
(PID.TID 0000.0001) %MON dynstat_eta_min              =  -1.2245249171265E+00
(PID.TID 0000.0001) %MON dynstat_eta_mean             =  -5.9578111163973E-02
(PID.TID 0000.0001) %MON dynstat_eta_sd               =   2.6938932374220E-01
(PID.TID 0000.0001) %MON dynstat_eta_del2             =   2.3589391084963E-06
(PID.TID 0000.0001) %MON dynstat_uvel_max             =   1.2733126667114E+00
(PID.TID 0000.0001) %MON dynstat_uvel_min             =  -7.9962512850433E-01
(PID.TID 0000.0001) %MON dynstat_uvel_mean            =   1.5021896518699E-03
(PID.TID 0000.0001) %MON dynstat_uvel_sd              =   5.2277967768350E-02
(PID.TID 0000.0001) %MON dynstat_uvel_del2            =   5.3767133703615E-07
(PID.TID 0000.0001) %MON dynstat_vvel_max             =   2.6099963963822E+00
(PID.TID 0000.0001) %MON dynstat_vvel_min             =  -9.1793439862814E-01
(PID.TID 0000.0001) %MON dynstat_vvel_mean            =  -4.6240296614747E-03
(PID.TID 0000.0001) %MON dynstat_vvel_sd              =   4.9393829514487E-02
(PID.TID 0000.0001) %MON dynstat_vvel_del2            =   4.9139902955115E-07
(PID.TID 0000.0001) %MON dynstat_wvel_max             =   3.6887527343287E-02
(PID.TID 0000.0001) %MON dynstat_wvel_min             =  -3.2454762218561E-02
(PID.TID 0000.0001) %MON dynstat_wvel_mean            =  -1.7147359681995E-05
(PID.TID 0000.0001) %MON dynstat_wvel_sd              =   6.0868809316052E-04
(PID.TID 0000.0001) %MON dynstat_wvel_del2            =   7.1151531923534E-08
(PID.TID 0000.0001) %MON dynstat_theta_max            =   2.6145779988711E+01
(PID.TID 0000.0001) %MON dynstat_theta_min            =   1.4688652665677E+00
(PID.TID 0000.0001) %MON dynstat_theta_mean           =   5.5098860330661E+00
(PID.TID 0000.0001) %MON dynstat_theta_sd             =   4.7733166610196E+00
(PID.TID 0000.0001) %MON dynstat_theta_del2           =   4.0332953963612E-06
(PID.TID 0000.0001) %MON dynstat_salt_max             =   3.9147967247930E+01
(PID.TID 0000.0001) %MON dynstat_salt_min             =   3.3100205333633E+01
(PID.TID 0000.0001) %MON dynstat_salt_mean            =   3.5173366500853E+01
(PID.TID 0000.0001) %MON dynstat_salt_sd              =   3.7891497000523E-01
(PID.TID 0000.0001) %MON dynstat_salt_del2            =   5.2862797733185E-07
(PID.TID 0000.0001) %MON dynstat_sst_max              =   2.6141858375447E+01
(PID.TID 0000.0001) %MON dynstat_sst_min              =   3.9075767954542E+00
(PID.TID 0000.0001) %MON dynstat_sst_mean             =   1.9635979756675E+01
(PID.TID 0000.0001) %MON dynstat_sst_sd               =   3.6392148960434E+00
(PID.TID 0000.0001) %MON dynstat_sst_del2             =   1.9259052459649E-05
(PID.TID 0000.0001) %MON dynstat_sss_max              =   3.7336296180795E+01
(PID.TID 0000.0001) %MON dynstat_sss_min              =   3.3100205333633E+01
(PID.TID 0000.0001) %MON dynstat_sss_mean             =   3.5868421104160E+01
(PID.TID 0000.0001) %MON dynstat_sss_sd               =   4.8718207127646E-01
(PID.TID 0000.0001) %MON dynstat_sss_del2             =   4.9114051350062E-06
(PID.TID 0000.0001) %MON forcing_qnet_max             =   1.2050684469068E+03
(PID.TID 0000.0001) %MON forcing_qnet_min             =  -3.0149163432895E+02
(PID.TID 0000.0001) %MON forcing_qnet_mean            =   2.4169116536875E+02
(PID.TID 0000.0001) %MON forcing_qnet_sd              =   1.4247662942434E+02
(PID.TID 0000.0001) %MON forcing_qnet_del2            =   1.6686323128239E-03
(PID.TID 0000.0001) %MON forcing_qsw_max              =   0.0000000000000E+00
(PID.TID 0000.0001) %MON forcing_qsw_min              =   0.0000000000000E+00
(PID.TID 0000.0001) %MON forcing_qsw_mean             =   0.0000000000000E+00
(PID.TID 0000.0001) %MON forcing_qsw_sd               =   0.0000000000000E+00
(PID.TID 0000.0001) %MON forcing_qsw_del2             =   0.0000000000000E+00
(PID.TID 0000.0001) %MON forcing_empmr_max            =   2.5873022624110E-04
(PID.TID 0000.0001) %MON forcing_empmr_min            =  -1.7936416474227E-03
(PID.TID 0000.0001) %MON forcing_empmr_mean           =   1.6364029942366E-05
(PID.TID 0000.0001) %MON forcing_empmr_sd             =   1.3238293821071E-04
(PID.TID 0000.0001) %MON forcing_empmr_del2           =   2.7392331304371E-09
(PID.TID 0000.0001) %MON forcing_fu_max               =   8.9130961126729E-01
(PID.TID 0000.0001) %MON forcing_fu_min               =  -3.9802874921686E-01
(PID.TID 0000.0001) %MON forcing_fu_mean              =   6.3894977470975E-02
(PID.TID 0000.0001) %MON forcing_fu_sd                =   1.5551219126541E-01
(PID.TID 0000.0001) %MON forcing_fu_del2              =   3.7587517394381E-07
(PID.TID 0000.0001) %MON forcing_fv_max               =   4.0103874402948E-01
(PID.TID 0000.0001) %MON forcing_fv_min               =  -5.7184892085383E-01
(PID.TID 0000.0001) %MON forcing_fv_mean              =   1.0989019355097E-02
(PID.TID 0000.0001) %MON forcing_fv_sd                =   1.0214028513749E-01
(PID.TID 0000.0001) %MON forcing_fv_del2              =   2.8834974160099E-07
(PID.TID 0000.0001) %MON trAdv_CFL_u_max              =   7.7252850890250E-02
(PID.TID 0000.0001) %MON trAdv_CFL_v_max              =   1.6490847013686E-01
(PID.TID 0000.0001) %MON trAdv_CFL_w_max              =   5.2707565621493E-01
(PID.TID 0000.0001) %MON advcfl_uvel_max              =   7.7252849838382E-02
(PID.TID 0000.0001) %MON advcfl_vvel_max              =   1.6495645213381E-01
(PID.TID 0000.0001) %MON advcfl_wvel_max              =   5.1829106194468E-01
(PID.TID 0000.0001) %MON advcfl_W_hf_max              =   5.2707565621493E-01
(PID.TID 0000.0001) %MON pe_b_mean                    =  -1.3553776020756E-03
(PID.TID 0000.0001) %MON ke_max                       =   3.0992955462159E+00
(PID.TID 0000.0001) %MON ke_mean                      =   2.5790402097909E-03
(PID.TID 0000.0001) %MON ke_vol                       =   4.5818637279720E+16
(PID.TID 0000.0001) %MON vort_r_min                   =  -5.1763021469848E-04
(PID.TID 0000.0001) %MON vort_r_max                   =   7.6319461939218E-04
(PID.TID 0000.0001) %MON vort_a_mean                  =   8.2147621412605E-05
(PID.TID 0000.0001) %MON vort_a_sd                    =   1.0151966712192E-05
(PID.TID 0000.0001) %MON vort_p_mean                  =   8.4848842666627E-05
(PID.TID 0000.0001) %MON vort_p_sd                    =   3.4982387499344E-05
(PID.TID 0000.0001) %MON surfExpan_theta_mean         =  -4.3714239831998E-04
(PID.TID 0000.0001) %MON surfExpan_salt_mean          =  -1.0718467309932E-03
(PID.TID 0000.0001) // =======================================================
(PID.TID 0000.0001) // End MONITOR dynamic field statistics
(PID.TID 0000.0001) // =======================================================
(PID.TID 0000.0001) // =======================================================
(PID.TID 0000.0001) // Begin OBCS MONITOR field statistics
(PID.TID 0000.0001) // =======================================================
(PID.TID 0000.0001) %MON obc_N_vVel_max               =   6.9426531208340E-01
(PID.TID 0000.0001) %MON obc_N_vVel_min               =  -3.2452656104798E-01
(PID.TID 0000.0001) %MON obc_N_vVel_mean              =   1.3381664447098E-02
(PID.TID 0000.0001) %MON obc_N_vVel_sd                =   6.4543608601926E-02
(PID.TID 0000.0001) %MON obc_N_vVel_Int               =   1.9155965681133E+08
(PID.TID 0000.0001) %MON obc_S_vVel_max               =   2.6099963963822E+00
(PID.TID 0000.0001) %MON obc_S_vVel_min               =  -2.6315746208509E-01
(PID.TID 0000.0001) %MON obc_S_vVel_mean              =  -4.9235880448266E-03
(PID.TID 0000.0001) %MON obc_S_vVel_sd                =   3.6409914101142E-02
(PID.TID 0000.0001) %MON obc_S_vVel_Int               =  -1.4988829687946E+08
(PID.TID 0000.0001) %MON obc_N_theta_max              =   1.6389715716732E+01
(PID.TID 0000.0001) %MON obc_N_theta_min              =   1.8895913648355E+00
(PID.TID 0000.0001) %MON obc_N_theta_mean             =   5.1588845079383E+00
(PID.TID 0000.0001) %MON obc_N_theta_sd               =   3.4826131499335E+00
(PID.TID 0000.0001) %MON obc_S_theta_max              =   2.5543605574674E+01
(PID.TID 0000.0001) %MON obc_S_theta_min              =   1.4633007926210E+00
(PID.TID 0000.0001) %MON obc_S_theta_mean             =   5.4595473148918E+00
(PID.TID 0000.0001) %MON obc_S_theta_sd               =   5.3558867108083E+00
(PID.TID 0000.0001) %MON obc_N_salt_max               =   3.5910862339236E+01
(PID.TID 0000.0001) %MON obc_N_salt_min               =   3.3295085604278E+01
(PID.TID 0000.0001) %MON obc_N_salt_mean              =   3.5114560468523E+01
(PID.TID 0000.0001) %MON obc_N_salt_sd                =   3.0984777910560E-01
(PID.TID 0000.0001) %MON obc_S_salt_max               =   3.7318257133628E+01
(PID.TID 0000.0001) %MON obc_S_salt_min               =   3.4844694992682E+01
(PID.TID 0000.0001) %MON obc_S_salt_mean              =   3.5168372003918E+01
(PID.TID 0000.0001) %MON obc_S_salt_sd                =   4.5716654409228E-01
(PID.TID 0000.0001) // =======================================================
(PID.TID 0000.0001) // End OBCS MONITOR field statistics
(PID.TID 0000.0001) // =======================================================
(PID.TID 0000.0001) // =======================================================
(PID.TID 0000.0001) // Begin MONITOR EXF statistics
(PID.TID 0000.0001) // =======================================================
(PID.TID 0000.0001) %MON exf_tsnumber                 =                    13
(PID.TID 0000.0001) %MON exf_time_sec                 =   3.1200000000000E+03
(PID.TID 0000.0001) %MON exf_ustress_max              =   9.0502568625211E-01
(PID.TID 0000.0001) %MON exf_ustress_min              =  -3.9587576463136E-01
(PID.TID 0000.0001) %MON exf_ustress_mean             =   6.4052376748807E-02
(PID.TID 0000.0001) %MON exf_ustress_sd               =   1.5577960930812E-01
(PID.TID 0000.0001) %MON exf_ustress_del2             =   4.3054269043491E-07
(PID.TID 0000.0001) %MON exf_vstress_max              =   4.0595826813487E-01
(PID.TID 0000.0001) %MON exf_vstress_min              =  -5.6886691409414E-01
(PID.TID 0000.0001) %MON exf_vstress_mean             =   1.1072829298960E-02
(PID.TID 0000.0001) %MON exf_vstress_sd               =   1.0231989147260E-01
(PID.TID 0000.0001) %MON exf_vstress_del2             =   3.2804577530313E-07
(PID.TID 0000.0001) %MON exf_hflux_max                =   1.1937821389424E+03
(PID.TID 0000.0001) %MON exf_hflux_min                =  -2.9934145832857E+02
(PID.TID 0000.0001) %MON exf_hflux_mean               =   2.3970154972344E+02
(PID.TID 0000.0001) %MON exf_hflux_sd                 =   1.4105908001673E+02
(PID.TID 0000.0001) %MON exf_hflux_del2               =   6.2732963086715E-02
(PID.TID 0000.0001) %MON exf_sflux_max                =   2.5979341624357E-07
(PID.TID 0000.0001) %MON exf_sflux_min                =  -1.8124530176065E-06
(PID.TID 0000.0001) %MON exf_sflux_mean               =   1.6144534589189E-08
(PID.TID 0000.0001) %MON exf_sflux_sd                 =   1.3269602631471E-07
(PID.TID 0000.0001) %MON exf_sflux_del2               =   3.2985301686992E-11
(PID.TID 0000.0001) %MON exf_uwind_max                =   2.0181542152032E+01
(PID.TID 0000.0001) %MON exf_uwind_min                =  -1.4772234256809E+01
(PID.TID 0000.0001) %MON exf_uwind_mean               =   2.4868106427629E+00
(PID.TID 0000.0001) %MON exf_uwind_sd                 =   6.6713267524102E+00
(PID.TID 0000.0001) %MON exf_uwind_del2               =   1.5899746696404E-03
(PID.TID 0000.0001) %MON exf_vwind_max                =   1.4669198630016E+01
(PID.TID 0000.0001) %MON exf_vwind_min                =  -1.2846789501505E+01
(PID.TID 0000.0001) %MON exf_vwind_mean               =   8.6712774038786E-01
(PID.TID 0000.0001) %MON exf_vwind_sd                 =   5.1867454547989E+00
(PID.TID 0000.0001) %MON exf_vwind_del2               =   1.1710053920090E-03
(PID.TID 0000.0001) %MON exf_wspeed_max               =   2.0282198388605E+01
(PID.TID 0000.0001) %MON exf_wspeed_min               =   1.1458342639479E-02
(PID.TID 0000.0001) %MON exf_wspeed_mean              =   7.7161904201315E+00
(PID.TID 0000.0001) %MON exf_wspeed_sd                =   4.3365276595083E+00
(PID.TID 0000.0001) %MON exf_wspeed_del2              =   1.9744483465376E-03
(PID.TID 0000.0001) %MON exf_atemp_max                =   2.9814926244538E+02
(PID.TID 0000.0001) %MON exf_atemp_min                =   2.7421895063718E+02
(PID.TID 0000.0001) %MON exf_atemp_mean               =   2.9066157108785E+02
(PID.TID 0000.0001) %MON exf_atemp_sd                 =   3.9477198570986E+00
(PID.TID 0000.0001) %MON exf_atemp_del2               =   3.8791415253772E-03
(PID.TID 0000.0001) %MON exf_aqh_max                  =   1.6731649066675E-02
(PID.TID 0000.0001) %MON exf_aqh_min                  =   2.7102328700209E-03
(PID.TID 0000.0001) %MON exf_aqh_mean                 =   9.4133265153213E-03
(PID.TID 0000.0001) %MON exf_aqh_sd                   =   2.8788044436869E-03
(PID.TID 0000.0001) %MON exf_aqh_del2                 =   2.1242153068833E-06
(PID.TID 0000.0001) %MON exf_lwflux_max               =   1.5421762698182E+02
(PID.TID 0000.0001) %MON exf_lwflux_min               =  -2.2891581605869E-01
(PID.TID 0000.0001) %MON exf_lwflux_mean              =   6.5330075953076E+01
(PID.TID 0000.0001) %MON exf_lwflux_sd                =   2.6491811404535E+01
(PID.TID 0000.0001) %MON exf_lwflux_del2              =   1.5451013532521E-02
(PID.TID 0000.0001) %MON exf_evap_max                 =   2.8941763359792E-07
(PID.TID 0000.0001) %MON exf_evap_min                 =  -9.9819836324138E-08
(PID.TID 0000.0001) %MON exf_evap_mean                =   5.9306138101622E-08
(PID.TID 0000.0001) %MON exf_evap_sd                  =   4.2159176007367E-08
(PID.TID 0000.0001) %MON exf_evap_del2                =   1.6408514960471E-11
(PID.TID 0000.0001) %MON exf_precip_max               =   1.9919098435667E-06
(PID.TID 0000.0001) %MON exf_precip_min               =   0.0000000000000E+00
(PID.TID 0000.0001) %MON exf_precip_mean              =   4.1573123940441E-08
(PID.TID 0000.0001) %MON exf_precip_sd                =   1.3847174930724E-07
(PID.TID 0000.0001) %MON exf_precip_del2              =   3.6002618057053E-11
(PID.TID 0000.0001) %MON exf_swflux_max               =   0.0000000000000E+00
(PID.TID 0000.0001) %MON exf_swflux_min               =   0.0000000000000E+00
(PID.TID 0000.0001) %MON exf_swflux_mean              =   0.0000000000000E+00
(PID.TID 0000.0001) %MON exf_swflux_sd                =   0.0000000000000E+00
(PID.TID 0000.0001) %MON exf_swflux_del2              =   0.0000000000000E+00
(PID.TID 0000.0001) %MON exf_swdown_max               =   0.0000000000000E+00
(PID.TID 0000.0001) %MON exf_swdown_min               =   0.0000000000000E+00
(PID.TID 0000.0001) %MON exf_swdown_mean              =   0.0000000000000E+00
(PID.TID 0000.0001) %MON exf_swdown_sd                =   0.0000000000000E+00
(PID.TID 0000.0001) %MON exf_swdown_del2              =   0.0000000000000E+00
(PID.TID 0000.0001) %MON exf_lwdown_max               =   4.1840605243108E+02
(PID.TID 0000.0001) %MON exf_lwdown_min               =   2.2445129712734E+02
(PID.TID 0000.0001) %MON exf_lwdown_mean              =   3.4969486341028E+02
(PID.TID 0000.0001) %MON exf_lwdown_sd                =   3.1528630999174E+01
(PID.TID 0000.0001) %MON exf_lwdown_del2              =   7.6670540414999E-02
(PID.TID 0000.0001) %MON exf_apressure_max            =   1.0281513960008E+05
(PID.TID 0000.0001) %MON exf_apressure_min            =   1.0001593692902E+05
(PID.TID 0000.0001) %MON exf_apressure_mean           =   1.0216918378156E+05
(PID.TID 0000.0001) %MON exf_apressure_sd             =   4.9886755976886E+02
(PID.TID 0000.0001) %MON exf_apressure_del2           =   2.2358003344738E+01
(PID.TID 0000.0001) %MON exf_runoff_max               =   4.4374798712073E-08
(PID.TID 0000.0001) %MON exf_runoff_min               =   0.0000000000000E+00
(PID.TID 0000.0001) %MON exf_runoff_mean              =   1.5884795719908E-09
(PID.TID 0000.0001) %MON exf_runoff_sd                =   5.3901959599983E-09
(PID.TID 0000.0001) %MON exf_runoff_del2              =   1.2741189756369E-12
(PID.TID 0000.0001) // =======================================================
(PID.TID 0000.0001) // End MONITOR EXF statistics
(PID.TID 0000.0001) // =======================================================
 cg2d: Sum(rhs),rhsMax =   1.97721784889041E+03  8.03981714694796E-02
(PID.TID 0000.0001)      cg2d_init_res =   1.43296654482857E+00
(PID.TID 0000.0001)      cg2d_iters(min,last) =      -1     311
(PID.TID 0000.0001)      cg2d_last_res =   6.82885186036702E-12
(PID.TID 0000.0001) // =======================================================
(PID.TID 0000.0001) // Begin MONITOR dynamic field statistics
(PID.TID 0000.0001) // =======================================================
(PID.TID 0000.0001) %MON time_tsnumber                =                    14
(PID.TID 0000.0001) %MON time_secondsf                =   3.3600000000000E+03
(PID.TID 0000.0001) %MON dynstat_eta_max              =   8.3779172832216E-01
(PID.TID 0000.0001) %MON dynstat_eta_min              =  -1.3071156838900E+00
(PID.TID 0000.0001) %MON dynstat_eta_mean             =  -6.7239447273600E-02
(PID.TID 0000.0001) %MON dynstat_eta_sd               =   2.7769797193943E-01
(PID.TID 0000.0001) %MON dynstat_eta_del2             =   2.4228394367791E-06
(PID.TID 0000.0001) %MON dynstat_uvel_max             =   1.2683488803795E+00
(PID.TID 0000.0001) %MON dynstat_uvel_min             =  -8.9372553489987E-01
(PID.TID 0000.0001) %MON dynstat_uvel_mean            =   1.2825853270453E-03
(PID.TID 0000.0001) %MON dynstat_uvel_sd              =   5.2294479183477E-02
(PID.TID 0000.0001) %MON dynstat_uvel_del2            =   5.4565757586743E-07
(PID.TID 0000.0001) %MON dynstat_vvel_max             =   2.6695680775817E+00
(PID.TID 0000.0001) %MON dynstat_vvel_min             =  -9.1690304440407E-01
(PID.TID 0000.0001) %MON dynstat_vvel_mean            =  -4.8021278615616E-03
(PID.TID 0000.0001) %MON dynstat_vvel_sd              =   4.9452117427411E-02
(PID.TID 0000.0001) %MON dynstat_vvel_del2            =   4.9928078495901E-07
(PID.TID 0000.0001) %MON dynstat_wvel_max             =   3.8248954061710E-02
(PID.TID 0000.0001) %MON dynstat_wvel_min             =  -3.2881509479265E-02
(PID.TID 0000.0001) %MON dynstat_wvel_mean            =  -1.8215462753852E-05
(PID.TID 0000.0001) %MON dynstat_wvel_sd              =   6.1030584764461E-04
(PID.TID 0000.0001) %MON dynstat_wvel_del2            =   7.0541314469905E-08
(PID.TID 0000.0001) %MON dynstat_theta_max            =   2.6147321992650E+01
(PID.TID 0000.0001) %MON dynstat_theta_min            =   1.4688654665227E+00
(PID.TID 0000.0001) %MON dynstat_theta_mean           =   5.5098994449910E+00
(PID.TID 0000.0001) %MON dynstat_theta_sd             =   4.7733187945081E+00
(PID.TID 0000.0001) %MON dynstat_theta_del2           =   4.0342202234592E-06
(PID.TID 0000.0001) %MON dynstat_salt_max             =   3.9143566339321E+01
(PID.TID 0000.0001) %MON dynstat_salt_min             =   3.3101325423781E+01
(PID.TID 0000.0001) %MON dynstat_salt_mean            =   3.5173366907035E+01
(PID.TID 0000.0001) %MON dynstat_salt_sd              =   3.7891597544469E-01
(PID.TID 0000.0001) %MON dynstat_salt_del2            =   5.3056206569933E-07
(PID.TID 0000.0001) %MON dynstat_sst_max              =   2.6143264115271E+01
(PID.TID 0000.0001) %MON dynstat_sst_min              =   3.8936658466098E+00
(PID.TID 0000.0001) %MON dynstat_sst_mean             =   1.9635343687729E+01
(PID.TID 0000.0001) %MON dynstat_sst_sd               =   3.6392498954584E+00
(PID.TID 0000.0001) %MON dynstat_sst_del2             =   1.9307626531037E-05
(PID.TID 0000.0001) %MON dynstat_sss_max              =   3.7336367531110E+01
(PID.TID 0000.0001) %MON dynstat_sss_min              =   3.3101325423781E+01
(PID.TID 0000.0001) %MON dynstat_sss_mean             =   3.5868447987928E+01
(PID.TID 0000.0001) %MON dynstat_sss_sd               =   4.8717680669192E-01
(PID.TID 0000.0001) %MON dynstat_sss_del2             =   4.9055852280966E-06
(PID.TID 0000.0001) %MON forcing_qnet_max             =   1.2122128010373E+03
(PID.TID 0000.0001) %MON forcing_qnet_min             =  -3.0429736689371E+02
(PID.TID 0000.0001) %MON forcing_qnet_mean            =   2.4175577951211E+02
(PID.TID 0000.0001) %MON forcing_qnet_sd              =   1.4269848789285E+02
(PID.TID 0000.0001) %MON forcing_qnet_del2            =   1.6788682199130E-03
(PID.TID 0000.0001) %MON forcing_qsw_max              =   0.0000000000000E+00
(PID.TID 0000.0001) %MON forcing_qsw_min              =   0.0000000000000E+00
(PID.TID 0000.0001) %MON forcing_qsw_mean             =   0.0000000000000E+00
(PID.TID 0000.0001) %MON forcing_qsw_sd               =   0.0000000000000E+00
(PID.TID 0000.0001) %MON forcing_qsw_del2             =   0.0000000000000E+00
(PID.TID 0000.0001) %MON forcing_empmr_max            =   2.5979341624357E-04
(PID.TID 0000.0001) %MON forcing_empmr_min            =  -1.8124530176065E-03
(PID.TID 0000.0001) %MON forcing_empmr_mean           =   1.6144534589189E-05
(PID.TID 0000.0001) %MON forcing_empmr_sd             =   1.3269602631471E-04
(PID.TID 0000.0001) %MON forcing_empmr_del2           =   2.6587144308048E-09
(PID.TID 0000.0001) %MON forcing_fu_max               =   9.0458302065633E-01
(PID.TID 0000.0001) %MON forcing_fu_min               =  -3.9586193613386E-01
(PID.TID 0000.0001) %MON forcing_fu_mean              =   6.4114219644299E-02
(PID.TID 0000.0001) %MON forcing_fu_sd                =   1.5584028489309E-01
(PID.TID 0000.0001) %MON forcing_fu_del2              =   3.9238133674433E-07
(PID.TID 0000.0001) %MON forcing_fv_max               =   4.0588017200823E-01
(PID.TID 0000.0001) %MON forcing_fv_min               =  -5.7367196378190E-01
(PID.TID 0000.0001) %MON forcing_fv_mean              =   1.1056052648947E-02
(PID.TID 0000.0001) %MON forcing_fv_sd                =   1.0245211833297E-01
(PID.TID 0000.0001) %MON forcing_fv_del2              =   3.0587522447986E-07
(PID.TID 0000.0001) %MON trAdv_CFL_u_max              =   7.6951694186660E-02
(PID.TID 0000.0001) %MON trAdv_CFL_v_max              =   1.6867241204257E-01
(PID.TID 0000.0001) %MON trAdv_CFL_w_max              =   5.3103979327592E-01
(PID.TID 0000.0001) %MON advcfl_uvel_max              =   7.6951693138893E-02
(PID.TID 0000.0001) %MON advcfl_vvel_max              =   1.6872148920127E-01
(PID.TID 0000.0001) %MON advcfl_wvel_max              =   5.2218913005466E-01
(PID.TID 0000.0001) %MON advcfl_W_hf_max              =   5.3103979327592E-01
(PID.TID 0000.0001) %MON pe_b_mean                    =  -1.5354528244249E-03
(PID.TID 0000.0001) %MON ke_max                       =   3.2533711220477E+00
(PID.TID 0000.0001) %MON ke_mean                      =   2.5832862188477E-03
(PID.TID 0000.0001) %MON ke_vol                       =   4.5818637279720E+16
(PID.TID 0000.0001) %MON vort_r_min                   =  -5.1680308729533E-04
(PID.TID 0000.0001) %MON vort_r_max                   =   7.8014139572259E-04
(PID.TID 0000.0001) %MON vort_a_mean                  =   8.2147620580607E-05
(PID.TID 0000.0001) %MON vort_a_sd                    =   1.0155281385977E-05
(PID.TID 0000.0001) %MON vort_p_mean                  =   8.4848841807272E-05
(PID.TID 0000.0001) %MON vort_p_sd                    =   3.4985894947056E-05
(PID.TID 0000.0001) %MON surfExpan_theta_mean         =  -4.7544280401856E-04
(PID.TID 0000.0001) %MON surfExpan_salt_mean          =  -1.1336065232624E-03
(PID.TID 0000.0001) // =======================================================
(PID.TID 0000.0001) // End MONITOR dynamic field statistics
(PID.TID 0000.0001) // =======================================================
(PID.TID 0000.0001) // =======================================================
(PID.TID 0000.0001) // Begin OBCS MONITOR field statistics
(PID.TID 0000.0001) // =======================================================
(PID.TID 0000.0001) %MON obc_N_vVel_max               =   6.9406954362584E-01
(PID.TID 0000.0001) %MON obc_N_vVel_min               =  -3.2488788876920E-01
(PID.TID 0000.0001) %MON obc_N_vVel_mean              =   1.3301629419791E-02
(PID.TID 0000.0001) %MON obc_N_vVel_sd                =   6.4519750541269E-02
(PID.TID 0000.0001) %MON obc_N_vVel_Int               =   1.9041394863546E+08
(PID.TID 0000.0001) %MON obc_S_vVel_max               =   2.6695680775817E+00
(PID.TID 0000.0001) %MON obc_S_vVel_min               =  -2.6321008674783E-01
(PID.TID 0000.0001) %MON obc_S_vVel_mean              =  -5.5958545034757E-03
(PID.TID 0000.0001) %MON obc_S_vVel_sd                =   3.6491707287936E-02
(PID.TID 0000.0001) %MON obc_S_vVel_Int               =  -1.7035403723358E+08
(PID.TID 0000.0001) %MON obc_N_theta_max              =   1.6389627614545E+01
(PID.TID 0000.0001) %MON obc_N_theta_min              =   1.8895914139009E+00
(PID.TID 0000.0001) %MON obc_N_theta_mean             =   5.1588771237882E+00
(PID.TID 0000.0001) %MON obc_N_theta_sd               =   3.4826038600191E+00
(PID.TID 0000.0001) %MON obc_S_theta_max              =   2.5543502825894E+01
(PID.TID 0000.0001) %MON obc_S_theta_min              =   1.4633011889082E+00
(PID.TID 0000.0001) %MON obc_S_theta_mean             =   5.4595465098672E+00
(PID.TID 0000.0001) %MON obc_S_theta_sd               =   5.3558828399123E+00
(PID.TID 0000.0001) %MON obc_N_salt_max               =   3.5910861930873E+01
(PID.TID 0000.0001) %MON obc_N_salt_min               =   3.3295091106912E+01
(PID.TID 0000.0001) %MON obc_N_salt_mean              =   3.5114560172537E+01
(PID.TID 0000.0001) %MON obc_N_salt_sd                =   3.0984766009526E-01
(PID.TID 0000.0001) %MON obc_S_salt_max               =   3.7318250249244E+01
(PID.TID 0000.0001) %MON obc_S_salt_min               =   3.4844695044902E+01
(PID.TID 0000.0001) %MON obc_S_salt_mean              =   3.5168371932001E+01
(PID.TID 0000.0001) %MON obc_S_salt_sd                =   4.5716619308913E-01
(PID.TID 0000.0001) // =======================================================
(PID.TID 0000.0001) // End OBCS MONITOR field statistics
(PID.TID 0000.0001) // =======================================================
(PID.TID 0000.0001) // =======================================================
(PID.TID 0000.0001) // Begin MONITOR EXF statistics
(PID.TID 0000.0001) // =======================================================
(PID.TID 0000.0001) %MON exf_tsnumber                 =                    14
(PID.TID 0000.0001) %MON exf_time_sec                 =   3.3600000000000E+03
(PID.TID 0000.0001) %MON exf_ustress_max              =   9.1892326850471E-01
(PID.TID 0000.0001) %MON exf_ustress_min              =  -3.9384925194314E-01
(PID.TID 0000.0001) %MON exf_ustress_mean             =   6.4294919953319E-02
(PID.TID 0000.0001) %MON exf_ustress_sd               =   1.5618116730865E-01
(PID.TID 0000.0001) %MON exf_ustress_del2             =   4.4981799602124E-07
(PID.TID 0000.0001) %MON exf_vstress_max              =   4.1134604281144E-01
(PID.TID 0000.0001) %MON exf_vstress_min              =  -5.7072184068348E-01
(PID.TID 0000.0001) %MON exf_vstress_mean             =   1.1139019422713E-02
(PID.TID 0000.0001) %MON exf_vstress_sd               =   1.0269718447045E-01
(PID.TID 0000.0001) %MON exf_vstress_del2             =   3.4963212229223E-07
(PID.TID 0000.0001) %MON exf_hflux_max                =   1.2009099984757E+03
(PID.TID 0000.0001) %MON exf_hflux_min                =  -3.0215984855511E+02
(PID.TID 0000.0001) %MON exf_hflux_mean               =   2.3980268132990E+02
(PID.TID 0000.0001) %MON exf_hflux_sd                 =   1.4134321127719E+02
(PID.TID 0000.0001) %MON exf_hflux_del2               =   6.2804863524679E-02
(PID.TID 0000.0001) %MON exf_sflux_max                =   2.6132853373355E-07
(PID.TID 0000.0001) %MON exf_sflux_min                =  -1.8312676377096E-06
(PID.TID 0000.0001) %MON exf_sflux_mean               =   1.5932234205875E-08
(PID.TID 0000.0001) %MON exf_sflux_sd                 =   1.3331541020715E-07
(PID.TID 0000.0001) %MON exf_sflux_del2               =   3.3375084693131E-11
(PID.TID 0000.0001) %MON exf_uwind_max                =   2.0303346804725E+01
(PID.TID 0000.0001) %MON exf_uwind_min                =  -1.4750836587506E+01
(PID.TID 0000.0001) %MON exf_uwind_mean               =   2.4887746837547E+00
(PID.TID 0000.0001) %MON exf_uwind_sd                 =   6.6743428123099E+00
(PID.TID 0000.0001) %MON exf_uwind_del2               =   1.5913708353343E-03
(PID.TID 0000.0001) %MON exf_vwind_max                =   1.4760466528803E+01
(PID.TID 0000.0001) %MON exf_vwind_min                =  -1.2875776277318E+01
(PID.TID 0000.0001) %MON exf_vwind_mean               =   8.6874465873558E-01
(PID.TID 0000.0001) %MON exf_vwind_sd                 =   5.1931042690279E+00
(PID.TID 0000.0001) %MON exf_vwind_del2               =   1.1721774151895E-03
(PID.TID 0000.0001) %MON exf_wspeed_max               =   2.0407414098255E+01
(PID.TID 0000.0001) %MON exf_wspeed_min               =   1.4874530982444E-02
(PID.TID 0000.0001) %MON exf_wspeed_mean              =   7.7203392025059E+00
(PID.TID 0000.0001) %MON exf_wspeed_sd                =   4.3428404566664E+00
(PID.TID 0000.0001) %MON exf_wspeed_del2              =   1.9762530440509E-03
(PID.TID 0000.0001) %MON exf_atemp_max                =   2.9814706511671E+02
(PID.TID 0000.0001) %MON exf_atemp_min                =   2.7419334929034E+02
(PID.TID 0000.0001) %MON exf_atemp_mean               =   2.9065844988195E+02
(PID.TID 0000.0001) %MON exf_atemp_sd                 =   3.9488921891151E+00
(PID.TID 0000.0001) %MON exf_atemp_del2               =   3.8785508627379E-03
(PID.TID 0000.0001) %MON exf_aqh_max                  =   1.6724662816345E-02
(PID.TID 0000.0001) %MON exf_aqh_min                  =   2.7079381606566E-03
(PID.TID 0000.0001) %MON exf_aqh_mean                 =   9.4121383624748E-03
(PID.TID 0000.0001) %MON exf_aqh_sd                   =   2.8803677271181E-03
(PID.TID 0000.0001) %MON exf_aqh_del2                 =   2.1239404076105E-06
(PID.TID 0000.0001) %MON exf_lwflux_max               =   1.5448829131708E+02
(PID.TID 0000.0001) %MON exf_lwflux_min               =  -2.6002106424395E-01
(PID.TID 0000.0001) %MON exf_lwflux_mean              =   6.5312512821495E+01
(PID.TID 0000.0001) %MON exf_lwflux_sd                =   2.6486979904210E+01
(PID.TID 0000.0001) %MON exf_lwflux_del2              =   1.5451482668061E-02
(PID.TID 0000.0001) %MON exf_evap_max                 =   2.9167192717123E-07
(PID.TID 0000.0001) %MON exf_evap_min                 =  -1.0072232673570E-07
(PID.TID 0000.0001) %MON exf_evap_mean                =   5.9336973033196E-08
(PID.TID 0000.0001) %MON exf_evap_sd                  =   4.2220016720561E-08
(PID.TID 0000.0001) %MON exf_evap_del2                =   1.6427622690448E-11
(PID.TID 0000.0001) %MON exf_precip_max               =   2.0113605350578E-06
(PID.TID 0000.0001) %MON exf_precip_min               =   0.0000000000000E+00
(PID.TID 0000.0001) %MON exf_precip_mean              =   4.1816259255330E-08
(PID.TID 0000.0001) %MON exf_precip_sd                =   1.3924116890474E-07
(PID.TID 0000.0001) %MON exf_precip_del2              =   3.6487842127549E-11
(PID.TID 0000.0001) %MON exf_swflux_max               =   0.0000000000000E+00
(PID.TID 0000.0001) %MON exf_swflux_min               =   0.0000000000000E+00
(PID.TID 0000.0001) %MON exf_swflux_mean              =   0.0000000000000E+00
(PID.TID 0000.0001) %MON exf_swflux_sd                =   0.0000000000000E+00
(PID.TID 0000.0001) %MON exf_swflux_del2              =   0.0000000000000E+00
(PID.TID 0000.0001) %MON exf_swdown_max               =   0.0000000000000E+00
(PID.TID 0000.0001) %MON exf_swdown_min               =   0.0000000000000E+00
(PID.TID 0000.0001) %MON exf_swdown_mean              =   0.0000000000000E+00
(PID.TID 0000.0001) %MON exf_swdown_sd                =   0.0000000000000E+00
(PID.TID 0000.0001) %MON exf_swdown_del2              =   0.0000000000000E+00
(PID.TID 0000.0001) %MON exf_lwdown_max               =   4.1843717641437E+02
(PID.TID 0000.0001) %MON exf_lwdown_min               =   2.2422666547346E+02
(PID.TID 0000.0001) %MON exf_lwdown_mean              =   3.4970935458784E+02
(PID.TID 0000.0001) %MON exf_lwdown_sd                =   3.1487337713033E+01
(PID.TID 0000.0001) %MON exf_lwdown_del2              =   7.6668130763894E-02
(PID.TID 0000.0001) %MON exf_apressure_max            =   1.0281834698098E+05
(PID.TID 0000.0001) %MON exf_apressure_min            =   1.0001465906299E+05
(PID.TID 0000.0001) %MON exf_apressure_mean           =   1.0216996108790E+05
(PID.TID 0000.0001) %MON exf_apressure_sd             =   4.9898323043071E+02
(PID.TID 0000.0001) %MON exf_apressure_del2           =   2.2358191203570E+01
(PID.TID 0000.0001) %MON exf_runoff_max               =   4.4374798712073E-08
(PID.TID 0000.0001) %MON exf_runoff_min               =   0.0000000000000E+00
(PID.TID 0000.0001) %MON exf_runoff_mean              =   1.5884795719908E-09
(PID.TID 0000.0001) %MON exf_runoff_sd                =   5.3901959599983E-09
(PID.TID 0000.0001) %MON exf_runoff_del2              =   1.2741189756369E-12
(PID.TID 0000.0001) // =======================================================
(PID.TID 0000.0001) // End MONITOR EXF statistics
(PID.TID 0000.0001) // =======================================================
 cg2d: Sum(rhs),rhsMax =   2.21429472337916E+03  7.90475325500906E-02
(PID.TID 0000.0001)      cg2d_init_res =   1.46733397411287E+00
(PID.TID 0000.0001)      cg2d_iters(min,last) =      -1     311
(PID.TID 0000.0001)      cg2d_last_res =   6.56176403909966E-12
(PID.TID 0000.0001) // =======================================================
(PID.TID 0000.0001) // Begin MONITOR dynamic field statistics
(PID.TID 0000.0001) // =======================================================
(PID.TID 0000.0001) %MON time_tsnumber                =                    15
(PID.TID 0000.0001) %MON time_secondsf                =   3.6000000000000E+03
(PID.TID 0000.0001) %MON dynstat_eta_max              =   8.2403776585035E-01
(PID.TID 0000.0001) %MON dynstat_eta_min              =  -1.3851989025807E+00
(PID.TID 0000.0001) %MON dynstat_eta_mean             =  -7.5301744511571E-02
(PID.TID 0000.0001) %MON dynstat_eta_sd               =   2.8536060912004E-01
(PID.TID 0000.0001) %MON dynstat_eta_del2             =   2.4885302231473E-06
(PID.TID 0000.0001) %MON dynstat_uvel_max             =   1.2641970986928E+00
(PID.TID 0000.0001) %MON dynstat_uvel_min             =  -9.3134109007112E-01
(PID.TID 0000.0001) %MON dynstat_uvel_mean            =   1.0694117584010E-03
(PID.TID 0000.0001) %MON dynstat_uvel_sd              =   5.2315859322821E-02
(PID.TID 0000.0001) %MON dynstat_uvel_del2            =   5.5361577135026E-07
(PID.TID 0000.0001) %MON dynstat_vvel_max             =   2.7285896357225E+00
(PID.TID 0000.0001) %MON dynstat_vvel_min             =  -9.1572080453940E-01
(PID.TID 0000.0001) %MON dynstat_vvel_mean            =  -4.9481139998800E-03
(PID.TID 0000.0001) %MON dynstat_vvel_sd              =   4.9502913537585E-02
(PID.TID 0000.0001) %MON dynstat_vvel_del2            =   5.0733261861588E-07
(PID.TID 0000.0001) %MON dynstat_wvel_max             =   3.9583494978449E-02
(PID.TID 0000.0001) %MON dynstat_wvel_min             =  -3.3065701527087E-02
(PID.TID 0000.0001) %MON dynstat_wvel_mean            =  -1.9261330028615E-05
(PID.TID 0000.0001) %MON dynstat_wvel_sd              =   6.1197635454951E-04
(PID.TID 0000.0001) %MON dynstat_wvel_del2            =   7.0440158316156E-08
(PID.TID 0000.0001) %MON dynstat_theta_max            =   2.6148720339782E+01
(PID.TID 0000.0001) %MON dynstat_theta_min            =   1.4688656793672E+00
(PID.TID 0000.0001) %MON dynstat_theta_mean           =   5.5099145153977E+00
(PID.TID 0000.0001) %MON dynstat_theta_sd             =   4.7733233785172E+00
(PID.TID 0000.0001) %MON dynstat_theta_del2           =   4.0347624202941E-06
(PID.TID 0000.0001) %MON dynstat_salt_max             =   3.9138981438856E+01
(PID.TID 0000.0001) %MON dynstat_salt_min             =   3.3102476494878E+01
(PID.TID 0000.0001) %MON dynstat_salt_mean            =   3.5173367396771E+01
(PID.TID 0000.0001) %MON dynstat_salt_sd              =   3.7891702582933E-01
(PID.TID 0000.0001) %MON dynstat_salt_del2            =   5.3225509589429E-07
(PID.TID 0000.0001) %MON dynstat_sst_max              =   2.6144531887550E+01
(PID.TID 0000.0001) %MON dynstat_sst_min              =   3.8797978450915E+00
(PID.TID 0000.0001) %MON dynstat_sst_mean             =   1.9634729302148E+01
(PID.TID 0000.0001) %MON dynstat_sst_sd               =   3.6392843739226E+00
(PID.TID 0000.0001) %MON dynstat_sst_del2             =   1.9363016785075E-05
(PID.TID 0000.0001) %MON dynstat_sss_max              =   3.7336435849182E+01
(PID.TID 0000.0001) %MON dynstat_sss_min              =   3.3102476494878E+01
(PID.TID 0000.0001) %MON dynstat_sss_mean             =   3.5868473513268E+01
(PID.TID 0000.0001) %MON dynstat_sss_sd               =   4.8717081566442E-01
(PID.TID 0000.0001) %MON dynstat_sss_del2             =   4.9000988338238E-06
(PID.TID 0000.0001) %MON forcing_qnet_max             =   1.2194801552276E+03
(PID.TID 0000.0001) %MON forcing_qnet_min             =  -3.0715407088419E+02
(PID.TID 0000.0001) %MON forcing_qnet_mean            =   2.4184365047984E+02
(PID.TID 0000.0001) %MON forcing_qnet_sd              =   1.4296056648008E+02
(PID.TID 0000.0001) %MON forcing_qnet_del2            =   1.6848104689320E-03
(PID.TID 0000.0001) %MON forcing_qsw_max              =   0.0000000000000E+00
(PID.TID 0000.0001) %MON forcing_qsw_min              =   0.0000000000000E+00
(PID.TID 0000.0001) %MON forcing_qsw_mean             =   0.0000000000000E+00
(PID.TID 0000.0001) %MON forcing_qsw_sd               =   0.0000000000000E+00
(PID.TID 0000.0001) %MON forcing_qsw_del2             =   0.0000000000000E+00
(PID.TID 0000.0001) %MON forcing_empmr_max            =   2.6132853373355E-04
(PID.TID 0000.0001) %MON forcing_empmr_min            =  -1.8312676377096E-03
(PID.TID 0000.0001) %MON forcing_empmr_mean           =   1.5932234205875E-05
(PID.TID 0000.0001) %MON forcing_empmr_sd             =   1.3331541020715E-04
(PID.TID 0000.0001) %MON forcing_empmr_del2           =   2.6146313039957E-09
(PID.TID 0000.0001) %MON forcing_fu_max               =   9.1866947308421E-01
(PID.TID 0000.0001) %MON forcing_fu_min               =  -3.9384077365998E-01
(PID.TID 0000.0001) %MON forcing_fu_mean              =   6.4357319999655E-02
(PID.TID 0000.0001) %MON forcing_fu_sd                =   1.5624196056658E-01
(PID.TID 0000.0001) %MON forcing_fu_del2              =   4.1196863736775E-07
(PID.TID 0000.0001) %MON forcing_fv_max               =   4.1115947969788E-01
(PID.TID 0000.0001) %MON forcing_fv_min               =  -5.7566107504141E-01
(PID.TID 0000.0001) %MON forcing_fv_mean              =   1.1122692554766E-02
(PID.TID 0000.0001) %MON forcing_fv_sd                =   1.0282939218347E-01
(PID.TID 0000.0001) %MON forcing_fv_del2              =   3.2648584349418E-07
(PID.TID 0000.0001) %MON trAdv_CFL_u_max              =   7.6699802424364E-02
(PID.TID 0000.0001) %MON trAdv_CFL_v_max              =   1.7240159529799E-01
(PID.TID 0000.0001) %MON trAdv_CFL_w_max              =   5.3231210834327E-01
(PID.TID 0000.0001) %MON advcfl_uvel_max              =   7.6699801380027E-02
(PID.TID 0000.0001) %MON advcfl_vvel_max              =   1.7245175750502E-01
(PID.TID 0000.0001) %MON advcfl_wvel_max              =   5.2344023987088E-01
(PID.TID 0000.0001) %MON advcfl_W_hf_max              =   5.3231210834327E-01
(PID.TID 0000.0001) %MON pe_b_mean                    =  -1.7254471505974E-03
(PID.TID 0000.0001) %MON ke_max                       =   3.4167188833247E+00
(PID.TID 0000.0001) %MON ke_mean                      =   2.5873468433411E-03
(PID.TID 0000.0001) %MON ke_vol                       =   4.5818637279720E+16
(PID.TID 0000.0001) %MON vort_r_min                   =  -5.3488769773757E-04
(PID.TID 0000.0001) %MON vort_r_max                   =   7.9657622144059E-04
(PID.TID 0000.0001) %MON vort_a_mean                  =   8.2147619744357E-05
(PID.TID 0000.0001) %MON vort_a_sd                    =   1.0158571634763E-05
(PID.TID 0000.0001) %MON vort_p_mean                  =   8.4848840943524E-05
(PID.TID 0000.0001) %MON vort_p_sd                    =   3.4989736405172E-05
(PID.TID 0000.0001) %MON surfExpan_theta_mean         =  -5.1265274307407E-04
(PID.TID 0000.0001) %MON surfExpan_salt_mean          =  -1.1938516710953E-03
(PID.TID 0000.0001) // =======================================================
(PID.TID 0000.0001) // End MONITOR dynamic field statistics
(PID.TID 0000.0001) // =======================================================
(PID.TID 0000.0001) // =======================================================
(PID.TID 0000.0001) // Begin OBCS MONITOR field statistics
(PID.TID 0000.0001) // =======================================================
(PID.TID 0000.0001) %MON obc_N_vVel_max               =   6.9386348641532E-01
(PID.TID 0000.0001) %MON obc_N_vVel_min               =  -3.2526955108089E-01
(PID.TID 0000.0001) %MON obc_N_vVel_mean              =   1.3207329893574E-02
(PID.TID 0000.0001) %MON obc_N_vVel_sd                =   6.4494935757103E-02
(PID.TID 0000.0001) %MON obc_N_vVel_Int               =   1.8906404295287E+08
(PID.TID 0000.0001) %MON obc_S_vVel_max               =   2.7285896357225E+00
(PID.TID 0000.0001) %MON obc_S_vVel_min               =  -2.6325457576441E-01
(PID.TID 0000.0001) %MON obc_S_vVel_mean              =  -6.2604081018520E-03
(PID.TID 0000.0001) %MON obc_S_vVel_sd                =   3.6578004715070E-02
(PID.TID 0000.0001) %MON obc_S_vVel_Int               =  -1.9058497575623E+08
(PID.TID 0000.0001) %MON obc_N_theta_max              =   1.6389539512358E+01
(PID.TID 0000.0001) %MON obc_N_theta_min              =   1.8895914629663E+00
(PID.TID 0000.0001) %MON obc_N_theta_mean             =   5.1588697396382E+00
(PID.TID 0000.0001) %MON obc_N_theta_sd               =   3.4825945703428E+00
(PID.TID 0000.0001) %MON obc_S_theta_max              =   2.5543400077115E+01
(PID.TID 0000.0001) %MON obc_S_theta_min              =   1.4633015851955E+00
(PID.TID 0000.0001) %MON obc_S_theta_mean             =   5.4595457048426E+00
(PID.TID 0000.0001) %MON obc_S_theta_sd               =   5.3558789690521E+00
(PID.TID 0000.0001) %MON obc_N_salt_max               =   3.5910861522510E+01
(PID.TID 0000.0001) %MON obc_N_salt_min               =   3.3295096609545E+01
(PID.TID 0000.0001) %MON obc_N_salt_mean              =   3.5114559876550E+01
(PID.TID 0000.0001) %MON obc_N_salt_sd                =   3.0984754112533E-01
(PID.TID 0000.0001) %MON obc_S_salt_max               =   3.7318243364860E+01
(PID.TID 0000.0001) %MON obc_S_salt_min               =   3.4844695097122E+01
(PID.TID 0000.0001) %MON obc_S_salt_mean              =   3.5168371860084E+01
(PID.TID 0000.0001) %MON obc_S_salt_sd                =   4.5716584210290E-01
(PID.TID 0000.0001) // =======================================================
(PID.TID 0000.0001) // End OBCS MONITOR field statistics
(PID.TID 0000.0001) // =======================================================
 Computing Diagnostic #     23  ETAN         Counter:      15   Parms: SM      M1      
 Computing Diagnostic #     80  oceTAUX      Counter:      15   Parms: UU      U1      
           Vector  Mate for  oceTAUX      Diagnostic #     81  oceTAUY  exists 
 Computing Diagnostic #     81  oceTAUY      Counter:      15   Parms: VV      U1      
           Vector  Mate for  oceTAUY      Diagnostic #     80  oceTAUX  exists 
 Computing Diagnostic #    185  EXFuwind     Counter:      15   Parms: UM      U1      
 Computing Diagnostic #    186  EXFvwind     Counter:      15   Parms: VM      U1      
 Computing Diagnostic #     26  THETA        Counter:      15   Parms: SMR     MR      
 Computing Diagnostic #     27  SALT         Counter:      15   Parms: SMR     MR      
 Computing Diagnostic #     30  UVEL         Counter:      15   Parms: UUR     MR      
           Vector  Mate for  UVEL         Diagnostic #     31  VVEL     exists 
 Computing Diagnostic #     31  VVEL         Counter:      15   Parms: VVR     MR      
           Vector  Mate for  VVEL         Diagnostic #     30  UVEL     exists 
 Computing Diagnostic #     32  WVEL         Counter:      15   Parms: WM      LR      
 Computing Diagnostic #     36  UVELSQ       Counter:      15   Parms: UURP    MR      
           Vector  Mate for  UVELSQ       Diagnostic #     37  VVELSQ   exists 
 Computing Diagnostic #     37  VVELSQ       Counter:      15   Parms: VVRP    MR      
           Vector  Mate for  VVELSQ       Diagnostic #     36  UVELSQ   exists 
 Computing Diagnostic #     52  WTHMASS      Counter:      15   Parms: WM      LR      
 Computing Diagnostic #     55  WSLTMASS     Counter:      15   Parms: WM      LR      
(PID.TID 0000.0001) %CHECKPOINT        15 ckptA
(PID.TID 0000.0001)   Seconds in section "ALL                    [THE_MODEL_MAIN]":
(PID.TID 0000.0001)           User time:   37.5116440504789
(PID.TID 0000.0001)         System time:  0.000000000000000E+000
(PID.TID 0000.0001)     Wall clock time:   61.1433258056641
(PID.TID 0000.0001)          No. starts:           1
(PID.TID 0000.0001)           No. stops:           1
(PID.TID 0000.0001)   Seconds in section "INITIALISE_FIXED       [THE_MODEL_MAIN]":
(PID.TID 0000.0001)           User time:   2.20674098283052
(PID.TID 0000.0001)         System time:  0.000000000000000E+000
(PID.TID 0000.0001)     Wall clock time:   5.56533694267273
(PID.TID 0000.0001)          No. starts:           1
(PID.TID 0000.0001)           No. stops:           1
(PID.TID 0000.0001)   Seconds in section "THE_MAIN_LOOP          [THE_MODEL_MAIN]":
(PID.TID 0000.0001)           User time:   35.3048882484436
(PID.TID 0000.0001)         System time:  0.000000000000000E+000
(PID.TID 0000.0001)     Wall clock time:   55.5779609680176
(PID.TID 0000.0001)          No. starts:           1
(PID.TID 0000.0001)           No. stops:           1
(PID.TID 0000.0001)   Seconds in section "INITIALISE_VARIA    [THE_MAIN_LOOP]":
(PID.TID 0000.0001)           User time:   1.31040000915527
(PID.TID 0000.0001)         System time:  0.000000000000000E+000
(PID.TID 0000.0001)     Wall clock time:   8.72864222526550
(PID.TID 0000.0001)          No. starts:           1
(PID.TID 0000.0001)           No. stops:           1
(PID.TID 0000.0001)   Seconds in section "MAIN LOOP           [THE_MAIN_LOOP]":
(PID.TID 0000.0001)           User time:   33.9944775104523
(PID.TID 0000.0001)         System time:  0.000000000000000E+000
(PID.TID 0000.0001)     Wall clock time:   46.8493018150330
(PID.TID 0000.0001)          No. starts:           1
(PID.TID 0000.0001)           No. stops:           1
(PID.TID 0000.0001)   Seconds in section "MAIN_DO_LOOP        [THE_MAIN_LOOP]":
(PID.TID 0000.0001)           User time:   33.9943847656250
(PID.TID 0000.0001)         System time:  0.000000000000000E+000
(PID.TID 0000.0001)     Wall clock time:   46.8492066860199
(PID.TID 0000.0001)          No. starts:          15
(PID.TID 0000.0001)           No. stops:          15
(PID.TID 0000.0001)   Seconds in section "FORWARD_STEP        [MAIN_DO_LOOP]":
(PID.TID 0000.0001)           User time:   33.9941818714142
(PID.TID 0000.0001)         System time:  0.000000000000000E+000
(PID.TID 0000.0001)     Wall clock time:   46.8489806652069
(PID.TID 0000.0001)          No. starts:          15
(PID.TID 0000.0001)           No. stops:          15
(PID.TID 0000.0001)   Seconds in section "DO_STATEVARS_DIAGS  [FORWARD_STEP]":
(PID.TID 0000.0001)           User time:  0.835164070129395
(PID.TID 0000.0001)         System time:  0.000000000000000E+000
(PID.TID 0000.0001)     Wall clock time:  0.840382575988770
(PID.TID 0000.0001)          No. starts:          45
(PID.TID 0000.0001)           No. stops:          45
(PID.TID 0000.0001)   Seconds in section "LOAD_FIELDS_DRIVER  [FORWARD_STEP]":
(PID.TID 0000.0001)           User time:  0.279253005981445
(PID.TID 0000.0001)         System time:  0.000000000000000E+000
(PID.TID 0000.0001)     Wall clock time:   1.00449562072754
(PID.TID 0000.0001)          No. starts:          15
(PID.TID 0000.0001)           No. stops:          15
(PID.TID 0000.0001)   Seconds in section "EXF_GETFORCING     [LOAD_FLDS_DRIVER]":
(PID.TID 0000.0001)           User time:  0.278894662857056
(PID.TID 0000.0001)         System time:  0.000000000000000E+000
(PID.TID 0000.0001)     Wall clock time:   1.00412440299988
(PID.TID 0000.0001)          No. starts:          15
(PID.TID 0000.0001)           No. stops:          15
(PID.TID 0000.0001)   Seconds in section "EXTERNAL_FLDS_LOAD [LOAD_FLDS_DRIVER]":
(PID.TID 0000.0001)           User time:  8.797645568847656E-005
(PID.TID 0000.0001)         System time:  0.000000000000000E+000
(PID.TID 0000.0001)     Wall clock time:  8.964538574218750E-005
(PID.TID 0000.0001)          No. starts:          15
(PID.TID 0000.0001)           No. stops:          15
(PID.TID 0000.0001)   Seconds in section "DO_ATMOSPHERIC_PHYS [FORWARD_STEP]":
(PID.TID 0000.0001)           User time:  8.034706115722656E-005
(PID.TID 0000.0001)         System time:  0.000000000000000E+000
(PID.TID 0000.0001)     Wall clock time:  8.416175842285156E-005
(PID.TID 0000.0001)          No. starts:          15
(PID.TID 0000.0001)           No. stops:          15
(PID.TID 0000.0001)   Seconds in section "DO_OCEANIC_PHYS     [FORWARD_STEP]":
(PID.TID 0000.0001)           User time:   3.86398816108704
(PID.TID 0000.0001)         System time:  0.000000000000000E+000
(PID.TID 0000.0001)     Wall clock time:   3.95391869544983
(PID.TID 0000.0001)          No. starts:          15
(PID.TID 0000.0001)           No. stops:          15
(PID.TID 0000.0001)   Seconds in section "KPP_CALC [DO_OCEANIC_PHYS]":
(PID.TID 0000.0001)           User time:   3.34252786636353
(PID.TID 0000.0001)         System time:  0.000000000000000E+000
(PID.TID 0000.0001)     Wall clock time:   3.40920400619507
(PID.TID 0000.0001)          No. starts:          15
(PID.TID 0000.0001)           No. stops:          15
(PID.TID 0000.0001)   Seconds in section "DYNAMICS            [FORWARD_STEP]":
(PID.TID 0000.0001)           User time:   9.80808925628662
(PID.TID 0000.0001)         System time:  0.000000000000000E+000
(PID.TID 0000.0001)     Wall clock time:   9.85212135314941
(PID.TID 0000.0001)          No. starts:          15
(PID.TID 0000.0001)           No. stops:          15
(PID.TID 0000.0001)   Seconds in section "UPDATE_SURF_DR      [FORWARD_STEP]":
(PID.TID 0000.0001)           User time:  6.676340103149414E-002
(PID.TID 0000.0001)         System time:  0.000000000000000E+000
(PID.TID 0000.0001)     Wall clock time:  6.754326820373535E-002
(PID.TID 0000.0001)          No. starts:          15
(PID.TID 0000.0001)           No. stops:          15
(PID.TID 0000.0001)   Seconds in section "SOLVE_FOR_PRESSURE  [FORWARD_STEP]":
(PID.TID 0000.0001)           User time:   1.59128570556641
(PID.TID 0000.0001)         System time:  0.000000000000000E+000
(PID.TID 0000.0001)     Wall clock time:   1.59683680534363
(PID.TID 0000.0001)          No. starts:          15
(PID.TID 0000.0001)           No. stops:          15
(PID.TID 0000.0001)   Seconds in section "MOM_CORRECTION_STEP [FORWARD_STEP]":
(PID.TID 0000.0001)           User time:  0.211547374725342
(PID.TID 0000.0001)         System time:  0.000000000000000E+000
(PID.TID 0000.0001)     Wall clock time:  0.212757825851440
(PID.TID 0000.0001)          No. starts:          15
(PID.TID 0000.0001)           No. stops:          15
(PID.TID 0000.0001)   Seconds in section "INTEGR_CONTINUITY   [FORWARD_STEP]":
(PID.TID 0000.0001)           User time:  0.290225982666016
(PID.TID 0000.0001)         System time:  0.000000000000000E+000
(PID.TID 0000.0001)     Wall clock time:  0.291228294372559
(PID.TID 0000.0001)          No. starts:          15
(PID.TID 0000.0001)           No. stops:          15
(PID.TID 0000.0001)   Seconds in section "BLOCKING_EXCHANGES  [FORWARD_STEP]":
(PID.TID 0000.0001)           User time:  0.926735401153564
(PID.TID 0000.0001)         System time:  0.000000000000000E+000
(PID.TID 0000.0001)     Wall clock time:  0.929158449172974
(PID.TID 0000.0001)          No. starts:          30
(PID.TID 0000.0001)           No. stops:          30
(PID.TID 0000.0001)   Seconds in section "THERMODYNAMICS      [FORWARD_STEP]":
(PID.TID 0000.0001)           User time:   6.03652477264404
(PID.TID 0000.0001)         System time:  0.000000000000000E+000
(PID.TID 0000.0001)     Wall clock time:   6.10327196121216
(PID.TID 0000.0001)          No. starts:          15
(PID.TID 0000.0001)           No. stops:          15
(PID.TID 0000.0001)   Seconds in section "TRC_CORRECTION_STEP [FORWARD_STEP]":
(PID.TID 0000.0001)           User time:  7.009506225585938E-005
(PID.TID 0000.0001)         System time:  0.000000000000000E+000
(PID.TID 0000.0001)     Wall clock time:  8.511543273925781E-005
(PID.TID 0000.0001)          No. starts:          15
(PID.TID 0000.0001)           No. stops:          15
(PID.TID 0000.0001)   Seconds in section "MONITOR             [FORWARD_STEP]":
(PID.TID 0000.0001)           User time:   1.05774116516113
(PID.TID 0000.0001)         System time:  0.000000000000000E+000
(PID.TID 0000.0001)     Wall clock time:   1.11695861816406
(PID.TID 0000.0001)          No. starts:          15
(PID.TID 0000.0001)           No. stops:          15
(PID.TID 0000.0001)   Seconds in section "DO_THE_MODEL_IO     [FORWARD_STEP]":
(PID.TID 0000.0001)           User time:   4.21760988235474
(PID.TID 0000.0001)         System time:  0.000000000000000E+000
(PID.TID 0000.0001)     Wall clock time:   8.65796017646790
(PID.TID 0000.0001)          No. starts:          15
(PID.TID 0000.0001)           No. stops:          15
(PID.TID 0000.0001)   Seconds in section "DO_WRITE_PICKUP     [FORWARD_STEP]":
(PID.TID 0000.0001)           User time:   4.80694532394409
(PID.TID 0000.0001)         System time:  0.000000000000000E+000
(PID.TID 0000.0001)     Wall clock time:   12.2203640937805
(PID.TID 0000.0001)          No. starts:          15
(PID.TID 0000.0001)           No. stops:          15
(PID.TID 0000.0001) // ======================================================
(PID.TID 0000.0001) // Tile <-> Tile communication statistics
(PID.TID 0000.0001) // ======================================================
(PID.TID 0000.0001) // o Tile number: 000001
(PID.TID 0000.0001) //         No. X exchanges =              0
(PID.TID 0000.0001) //            Max. X spins =              0
(PID.TID 0000.0001) //            Min. X spins =     1000000000
(PID.TID 0000.0001) //          Total. X spins =              0
(PID.TID 0000.0001) //            Avg. X spins =       0.00E+00
(PID.TID 0000.0001) //         No. Y exchanges =              0
(PID.TID 0000.0001) //            Max. Y spins =              0
(PID.TID 0000.0001) //            Min. Y spins =     1000000000
(PID.TID 0000.0001) //          Total. Y spins =              0
(PID.TID 0000.0001) //            Avg. Y spins =       0.00E+00
(PID.TID 0000.0001) // o Thread number: 000001
(PID.TID 0000.0001) //            No. barriers =          72282
(PID.TID 0000.0001) //      Max. barrier spins =              1
(PID.TID 0000.0001) //      Min. barrier spins =              1
(PID.TID 0000.0001) //     Total barrier spins =          72282
(PID.TID 0000.0001) //      Avg. barrier spins =       1.00E+00
PROGRAM MAIN: Execution ended Normally
