(PID.TID 0000.0001) 
(PID.TID 0000.0001) // ======================================================
(PID.TID 0000.0001) //                      MITgcm UV
(PID.TID 0000.0001) //                      =========
(PID.TID 0000.0001) // ======================================================
(PID.TID 0000.0001) // execution environment starting up...
(PID.TID 0000.0001) 
(PID.TID 0000.0001) // MITgcmUV version:  checkpoint67h
(PID.TID 0000.0001) // Build user:        anirban
(PID.TID 0000.0001) // Build host:        login1
(PID.TID 0000.0001) // Build date:        Tue Apr  9 01:13:46 PDT 2019
(PID.TID 0000.0001) 
(PID.TID 0000.0001) // =======================================================
(PID.TID 0000.0001) // Execution Environment parameter file "eedata"
(PID.TID 0000.0001) // =======================================================
(PID.TID 0000.0001) ># Example "eedata" file
(PID.TID 0000.0001) ># Lines beginning "#" are comments
(PID.TID 0000.0001) ># nTx - No. threads per process in X
(PID.TID 0000.0001) ># nTy - No. threads per process in Y
(PID.TID 0000.0001) > &EEPARMS
(PID.TID 0000.0001) > nTx=1,
(PID.TID 0000.0001) > nTy=1,
(PID.TID 0000.0001) ># debugMode=.TRUE.,
(PID.TID 0000.0001) > /
(PID.TID 0000.0001) ># Note: Some systems use & as the
(PID.TID 0000.0001) ># namelist terminator. Other systems
(PID.TID 0000.0001) ># use a / character (as shown here).
(PID.TID 0000.0001) 
(PID.TID 0000.0001) // =======================================================
(PID.TID 0000.0001) // Computational Grid Specification ( see files "SIZE.h" )
(PID.TID 0000.0001) //                                  ( and "eedata"       )
(PID.TID 0000.0001) // =======================================================
(PID.TID 0000.0001)      nPx =   97 ; /* No. processes in X */
(PID.TID 0000.0001)      nPy =    1 ; /* No. processes in Y */
(PID.TID 0000.0001)      nSx =   10 ; /* No. tiles in X per process */
(PID.TID 0000.0001)      nSy =    1 ; /* No. tiles in Y per process */
(PID.TID 0000.0001)      sNx =   33 ; /* Tile size in X */
(PID.TID 0000.0001)      sNy =   28 ; /* Tile size in Y */
(PID.TID 0000.0001)      OLx =    4 ; /* Tile overlap distance in X */
(PID.TID 0000.0001)      OLy =    4 ; /* Tile overlap distance in Y */
(PID.TID 0000.0001)      nTx =    1 ; /* No. threads in X per process */
(PID.TID 0000.0001)      nTy =    1 ; /* No. threads in Y per process */
(PID.TID 0000.0001)       Nr =  100 ; /* No. levels in the vertical   */
(PID.TID 0000.0001)       Nx =32010 ; /* Total domain size in X ( = nPx*nSx*sNx ) */
(PID.TID 0000.0001)       Ny =   28 ; /* Total domain size in Y ( = nPy*nSy*sNy ) */
(PID.TID 0000.0001)   nTiles =   10 ; /* Total no. tiles per process ( = nSx*nSy ) */
(PID.TID 0000.0001)   nProcs =   97 ; /* Total no. processes ( = nPx*nPy ) */
(PID.TID 0000.0001) nThreads =    1 ; /* Total no. threads per process ( = nTx*nTy ) */
(PID.TID 0000.0001) usingMPI =    T ; /* Flag used to control whether MPI is in use */
(PID.TID 0000.0001)                   /*  note: To execute a program with MPI calls */
(PID.TID 0000.0001)                   /*  it must be launched appropriately e.g     */
(PID.TID 0000.0001)                   /*  "mpirun -np 64 ......"                    */
(PID.TID 0000.0001) useCoupler=    F ;/* Flag used to control communications with   */
(PID.TID 0000.0001)                   /*  other model components, through a coupler */
(PID.TID 0000.0001) useNest2W_parent =    F ;/* Control 2-W Nesting comm */
(PID.TID 0000.0001) useNest2W_child  =    F ;/* Control 2-W Nesting comm */
(PID.TID 0000.0001) debugMode =    F ; /* print debug msg. (sequence of S/R calls)  */
(PID.TID 0000.0001) printMapIncludesZeros=    F ; /* print zeros in Std.Output maps */
(PID.TID 0000.0001) maxLengthPrt1D=   65 /* maxLength of 1D array printed to StdOut */
(PID.TID 0000.0001) 
(PID.TID 0000.0001) ======= Starting MPI parallel Run =========
(PID.TID 0000.0001)  My Processor Name (len:  9 ) = hpc-91-13
(PID.TID 0000.0001)  Located at (  0,  0) on processor grid (0: 96,0:  0)
(PID.TID 0000.0001)  Origin at  (     1,     1) on global grid (1: 32010,1:    28)
(PID.TID 0000.0001)  North neighbor = processor 0000
(PID.TID 0000.0001)  South neighbor = processor 0000
(PID.TID 0000.0001)   East neighbor = processor 0001
(PID.TID 0000.0001)   West neighbor = processor 0096
(PID.TID 0000.0001) // ======================================================
(PID.TID 0000.0001) // Mapping of tiles to threads
(PID.TID 0000.0001) // ======================================================
(PID.TID 0000.0001) // -o- Thread   1, tiles (   1:  10,   1:   1)
(PID.TID 0000.0001) 
(PID.TID 0000.0001) W2_READPARMS: opening data.exch2
(PID.TID 0000.0001)  OPEN_COPY_DATA_FILE: opening file data.exch2
(PID.TID 0000.0001) // =======================================================
(PID.TID 0000.0001) // Parameter file "data.exch2"
(PID.TID 0000.0001) // =======================================================
(PID.TID 0000.0001) ># EXCH2 Package: Wrapper-2 User Choice
(PID.TID 0000.0001) >#--------------------
(PID.TID 0000.0001) >#  preDefTopol   :: pre-defined Topology selector:
(PID.TID 0000.0001) >#                :: = 0 : topology defined from processing "data.exch2";
(PID.TID 0000.0001) >#                :: = 1 : simple, single facet topology;
(PID.TID 0000.0001) >#                :: = 2 : customized topology (w2_set_myown_facets)
(PID.TID 0000.0001) >#                :: = 3 : 6-facet Cube (3 face-dims: nRed, nGreen, nBlue).
(PID.TID 0000.0001) >#  dimsFacets    :: facet pair of dimensions (n1x,n1y, n2x,n2y ...)
(PID.TID 0000.0001) >#  facetEdgeLink :: Face-Edge connectivity map:
(PID.TID 0000.0001) >#    facetEdgeLink(i,j)=XX.1 : face(j)-edge(i) (i=1,2,3,4 <==> N,S,E,W)
(PID.TID 0000.0001) >#    is connected to Northern edge of face "XX" ; similarly,
(PID.TID 0000.0001) >#    = XX.2 : to Southern.E, XX.3 = Eastern.E, XX.4 = Western.E of face "XX"
(PID.TID 0000.0001) >#  blankList     :: List of "blank" tiles
(PID.TID 0000.0001) >#  W2_mapIO      :: global map IO selector (-1 = old type ; 0 = 1 long line in X
(PID.TID 0000.0001) >#                :: 1 = compact, mostly in Y dir)
(PID.TID 0000.0001) >#  W2_printMsg   :: option for information messages printing
(PID.TID 0000.0001) >#                :: <0 : write to log file ; =0 : minimum print ;
(PID.TID 0000.0001) >#                :: =1 : no duplicated print ; =2 : all processes do print
(PID.TID 0000.0001) >#--------------------
(PID.TID 0000.0001) > &W2_EXCH2_PARM01
(PID.TID 0000.0001) >  W2_printMsg= 0,
(PID.TID 0000.0001) >  W2_mapIO   = 1,
(PID.TID 0000.0001) >#
(PID.TID 0000.0001) >#-- 5 facets llc_270 topology (drop facet 6 and its connection):
(PID.TID 0000.0001) >  preDefTopol = 1,
(PID.TID 0000.0001) >  dimsFacets = 1815, 532,
(PID.TID 0000.0001) >  blankList =
(PID.TID 0000.0001) >   386,
(PID.TID 0000.0001) >   441,
(PID.TID 0000.0001) >   496,
(PID.TID 0000.0001) >   551,
(PID.TID 0000.0001) >   606,
(PID.TID 0000.0001) >   661,
(PID.TID 0000.0001) >   716,
(PID.TID 0000.0001) >   771,
(PID.TID 0000.0001) >   826,
(PID.TID 0000.0001) >   881,
(PID.TID 0000.0001) >   936,
(PID.TID 0000.0001) >   991,
(PID.TID 0000.0001) >   442,
(PID.TID 0000.0001) >   497,
(PID.TID 0000.0001) >   552,
(PID.TID 0000.0001) >   607,
(PID.TID 0000.0001) >   662,
(PID.TID 0000.0001) >   717,
(PID.TID 0000.0001) >   772,
(PID.TID 0000.0001) >   827,
(PID.TID 0000.0001) >   882,
(PID.TID 0000.0001) >   937,
(PID.TID 0000.0001) >   992,
(PID.TID 0000.0001) >   498,
(PID.TID 0000.0001) >   553,
(PID.TID 0000.0001) >   608,
(PID.TID 0000.0001) >   663,
(PID.TID 0000.0001) >   718,
(PID.TID 0000.0001) >   773,
(PID.TID 0000.0001) >   828,
(PID.TID 0000.0001) >   883,
(PID.TID 0000.0001) >   938,
(PID.TID 0000.0001) >   993,
(PID.TID 0000.0001) >   554,
(PID.TID 0000.0001) >   774,
(PID.TID 0000.0001) >   829,
(PID.TID 0000.0001) >   884,
(PID.TID 0000.0001) >   939,
(PID.TID 0000.0001) >   994,
(PID.TID 0000.0001) >   830,
(PID.TID 0000.0001) >   885,
(PID.TID 0000.0001) >   940,
(PID.TID 0000.0001) >   995,
(PID.TID 0000.0001) >   941,
(PID.TID 0000.0001) >   996,
(PID.TID 0000.0001) >   942,
(PID.TID 0000.0001) >   997,
(PID.TID 0000.0001) >    51,
(PID.TID 0000.0001) >    52,
(PID.TID 0000.0001) >    53,
(PID.TID 0000.0001) >   108,
(PID.TID 0000.0001) >    54,
(PID.TID 0000.0001) >   109,
(PID.TID 0000.0001) >   164,
(PID.TID 0000.0001) >   219,
(PID.TID 0000.0001) >   274,
(PID.TID 0000.0001) >   329,
(PID.TID 0000.0001) >   714,
(PID.TID 0000.0001) >   769,
(PID.TID 0000.0001) >   824,
(PID.TID 0000.0001) >   989,
(PID.TID 0000.0001) >    55,
(PID.TID 0000.0001) >   110,
(PID.TID 0000.0001) >   165,
(PID.TID 0000.0001) >   220,
(PID.TID 0000.0001) >   275,
(PID.TID 0000.0001) >   330,
(PID.TID 0000.0001) >   385,
(PID.TID 0000.0001) >   715,
(PID.TID 0000.0001) >   770,
(PID.TID 0000.0001) >   825,
(PID.TID 0000.0001) >   880,
(PID.TID 0000.0001) >   935,
(PID.TID 0000.0001) >   990,
(PID.TID 0000.0001) >  1045,
(PID.TID 0000.0001) > &
(PID.TID 0000.0001) 
(PID.TID 0000.0001) W2_READPARMS: finished reading data.exch2
(PID.TID 0000.0001) W2_useE2ioLayOut=    T ;/* T: use Exch2 glob IO map; F: use model default */
(PID.TID 0000.0001) W2_mapIO        =   1 ; /* select option for Exch2 global-IO map */
(PID.TID 0000.0001) W2_printMsg     =   0 ; /* select option for printing information */
(PID.TID 0000.0001) ===== Start setting W2 TOPOLOGY:
(PID.TID 0000.0001) W2_E2SETUP: number of Active Tiles =     970
(PID.TID 0000.0001) W2_E2SETUP: number of Blank Tiles  =      75
(PID.TID 0000.0001) W2_E2SETUP: Total number of Tiles  =    1045
(PID.TID 0000.0001) W2_SET_SINGLE_FACET: preDefTopol=  1 selected
(PID.TID 0000.0001) W2_E2SETUP: Total number of Facets =       1
(PID.TID 0000.0001) W2_SET_F2F_INDEX: index matrix for connected Facet-Edges:
(PID.TID 0000.0001) W2_SET_MAP_TILES: tile mapping within facet and global Map:
(PID.TID 0000.0001)  W2_mapIO = 1815 (=   55*sNx)
(PID.TID 0000.0001)  Global Map (IO): X-size=    1815 , Y-size=     532
(PID.TID 0000.0001) W2_SET_MAP_TILES: tile offset within facet and global Map:
- facet  1 : X-size=  1815 , Y-size=   532 ; 1045 tiles (Tx,Ty=  55,  19)
(PID.TID 0000.0001) W2_SET_MAP_CUMSUM: setting Facet Matrix for CUMUL-SUM
 Facet Matrix for CUMUL-SUM (nFacets=   1, nActive=   1 ):
- facet  1 :  0  0 ,
(PID.TID 0000.0001) W2_SET_MAP_CUMSUM: done (skip Tile Matrix setting)
(PID.TID 0000.0001) W2_SET_TILE2TILES: tile neighbours and index connection:
(PID.TID 0000.0001) current Max.Nb.Neighbours (e.g., on tile    8 ) =  4
(PID.TID 0000.0001) ===== W2 TILE TOPOLOGY =====
(PID.TID 0000.0001)  TILE:     1 (bi,bj=   1   1 ), Nb of Neighbours =  2
(PID.TID 0000.0001)     NEIGHBOUR  1 = TILE   56 (n=  2) Comm = MSG (PROC=    6)
(PID.TID 0000.0001)     NEIGHBOUR  2 = TILE    2 (n=  3) Comm = PUT (PROC=    1)
(PID.TID 0000.0001)  TILE:     2 (bi,bj=   2   1 ), Nb of Neighbours =  3
(PID.TID 0000.0001)     NEIGHBOUR  1 = TILE   57 (n=  2) Comm = MSG (PROC=    6)
(PID.TID 0000.0001)     NEIGHBOUR  2 = TILE    3 (n=  3) Comm = PUT (PROC=    1)
(PID.TID 0000.0001)     NEIGHBOUR  3 = TILE    1 (n=  2) Comm = PUT (PROC=    1)
(PID.TID 0000.0001)  TILE:     3 (bi,bj=   3   1 ), Nb of Neighbours =  3
(PID.TID 0000.0001)     NEIGHBOUR  1 = TILE   58 (n=  2) Comm = MSG (PROC=    6)
(PID.TID 0000.0001)     NEIGHBOUR  2 = TILE    4 (n=  3) Comm = PUT (PROC=    1)
(PID.TID 0000.0001)     NEIGHBOUR  3 = TILE    2 (n=  2) Comm = PUT (PROC=    1)
(PID.TID 0000.0001)  TILE:     4 (bi,bj=   4   1 ), Nb of Neighbours =  3
(PID.TID 0000.0001)     NEIGHBOUR  1 = TILE   59 (n=  2) Comm = MSG (PROC=    6)
(PID.TID 0000.0001)     NEIGHBOUR  2 = TILE    5 (n=  3) Comm = PUT (PROC=    1)
(PID.TID 0000.0001)     NEIGHBOUR  3 = TILE    3 (n=  2) Comm = PUT (PROC=    1)
(PID.TID 0000.0001)  TILE:     5 (bi,bj=   5   1 ), Nb of Neighbours =  3
(PID.TID 0000.0001)     NEIGHBOUR  1 = TILE   60 (n=  2) Comm = MSG (PROC=    6)
(PID.TID 0000.0001)     NEIGHBOUR  2 = TILE    6 (n=  3) Comm = PUT (PROC=    1)
(PID.TID 0000.0001)     NEIGHBOUR  3 = TILE    4 (n=  2) Comm = PUT (PROC=    1)
(PID.TID 0000.0001)  TILE:     6 (bi,bj=   6   1 ), Nb of Neighbours =  3
(PID.TID 0000.0001)     NEIGHBOUR  1 = TILE   61 (n=  2) Comm = MSG (PROC=    6)
(PID.TID 0000.0001)     NEIGHBOUR  2 = TILE    7 (n=  3) Comm = PUT (PROC=    1)
(PID.TID 0000.0001)     NEIGHBOUR  3 = TILE    5 (n=  2) Comm = PUT (PROC=    1)
(PID.TID 0000.0001)  TILE:     7 (bi,bj=   7   1 ), Nb of Neighbours =  3
(PID.TID 0000.0001)     NEIGHBOUR  1 = TILE   62 (n=  2) Comm = MSG (PROC=    6)
(PID.TID 0000.0001)     NEIGHBOUR  2 = TILE    8 (n=  4) Comm = PUT (PROC=    1)
(PID.TID 0000.0001)     NEIGHBOUR  3 = TILE    6 (n=  2) Comm = PUT (PROC=    1)
(PID.TID 0000.0001)  TILE:     8 (bi,bj=   8   1 ), Nb of Neighbours =  4
(PID.TID 0000.0001)     NEIGHBOUR  1 = TILE   63 (n=  2) Comm = MSG (PROC=    6)
(PID.TID 0000.0001)     NEIGHBOUR  2 = TILE  998 (n=  1) Comm = MSG (PROC=   93)
(PID.TID 0000.0001)     NEIGHBOUR  3 = TILE    9 (n=  4) Comm = PUT (PROC=    1)
(PID.TID 0000.0001)     NEIGHBOUR  4 = TILE    7 (n=  2) Comm = PUT (PROC=    1)
(PID.TID 0000.0001)  TILE:     9 (bi,bj=   9   1 ), Nb of Neighbours =  4
(PID.TID 0000.0001)     NEIGHBOUR  1 = TILE   64 (n=  2) Comm = MSG (PROC=    6)
(PID.TID 0000.0001)     NEIGHBOUR  2 = TILE  999 (n=  1) Comm = MSG (PROC=   93)
(PID.TID 0000.0001)     NEIGHBOUR  3 = TILE   10 (n=  4) Comm = PUT (PROC=    1)
(PID.TID 0000.0001)     NEIGHBOUR  4 = TILE    8 (n=  3) Comm = PUT (PROC=    1)
(PID.TID 0000.0001)  TILE:    10 (bi,bj=  10   1 ), Nb of Neighbours =  4
(PID.TID 0000.0001)     NEIGHBOUR  1 = TILE   65 (n=  2) Comm = MSG (PROC=    6)
(PID.TID 0000.0001)     NEIGHBOUR  2 = TILE 1000 (n=  1) Comm = MSG (PROC=   93)
(PID.TID 0000.0001)     NEIGHBOUR  3 = TILE   11 (n=  4) Comm = MSG (PROC=    2)
(PID.TID 0000.0001)     NEIGHBOUR  4 = TILE    9 (n=  3) Comm = PUT (PROC=    1)
(PID.TID 0000.0001) =====       setting W2 TOPOLOGY: Done
(PID.TID 0000.0001) 
(PID.TID 0000.0001)  INI_PARMS: opening model parameter file "data"
(PID.TID 0000.0001)  OPEN_COPY_DATA_FILE: opening file data
(PID.TID 0000.0001) // =======================================================
(PID.TID 0000.0001) // Parameter file "data"
(PID.TID 0000.0001) // =======================================================
(PID.TID 0000.0001) >### Data file with primary model parameters -----------------------------------
(PID.TID 0000.0001) >#
(PID.TID 0000.0001) >### Continuous equation parameters --------------------------------------------
(PID.TID 0000.0001) > &PARM01
(PID.TID 0000.0001) >## Reference temperatures and salinities for every vertical level.
(PID.TID 0000.0001) > tRef =  18.89, 18.89, 18.89, 18.89, 18.89, 18.87, 18.85, 18.82,
(PID.TID 0000.0001) >         18.80, 18.73, 18.63, 18.49, 18.28, 18.08, 17.86, 17.63,
(PID.TID 0000.0001) >         17.40, 17.18, 16.95, 16.73, 16.52, 16.31, 16.10, 15.89,
(PID.TID 0000.0001) >         15.69, 15.49, 15.28, 15.08, 14.88, 14.67, 14.47, 14.25,
(PID.TID 0000.0001) >         14.03, 13.80, 13.55, 13.29, 13.01, 12.73, 12.42, 12.11,
(PID.TID 0000.0001) >         11.78, 11.43, 11.07, 10.70, 10.31,  9.93,  9.53,  9.11,
(PID.TID 0000.0001) >          8.71,  8.29,  7.89,  7.51,  7.13,  6.78,  6.44,  6.11,
(PID.TID 0000.0001) >          5.81,  5.51,  5.23,  4.97,  4.73,  4.51,  4.30,  4.11,
(PID.TID 0000.0001) >          3.94,  3.78,  3.63,  3.50,  3.38,  3.25,  3.14,  3.04,
(PID.TID 0000.0001) >          2.94,  2.83,  2.74,  2.64,  2.54,  2.45,  2.36,  2.27,
(PID.TID 0000.0001) >          2.19,  2.10,  2.03,  1.95,  1.86,  1.78,  1.70,  1.63,
(PID.TID 0000.0001) >          1.55,  1.48,  1.41,  1.34,  1.27,  1.20,  1.13,  1.06,
(PID.TID 0000.0001) >          1.00,  0.96,  0.93,  0.91,
(PID.TID 0000.0001) > sRef =  34.84, 34.84, 34.84, 34.84, 34.84, 34.84, 34.85, 34.85,
(PID.TID 0000.0001) >         34.85, 34.86, 34.87, 34.88, 34.90, 34.91, 34.93, 34.95,
(PID.TID 0000.0001) >         34.96, 34.98, 34.99, 35.00, 35.01, 35.02, 35.03, 35.04,
(PID.TID 0000.0001) >         35.05, 35.06, 35.07, 35.07, 35.07, 35.07, 35.07, 35.07,
(PID.TID 0000.0001) >         35.07, 35.06, 35.05, 35.04, 35.03, 35.02, 35.01, 34.99,
(PID.TID 0000.0001) >         34.97, 34.95, 34.92, 34.90, 34.87, 34.84, 34.81, 34.78,
(PID.TID 0000.0001) >         34.75, 34.72, 34.69, 34.67, 34.65, 34.62, 34.61, 34.60,
(PID.TID 0000.0001) >         34.59, 34.59, 34.58, 34.59, 34.59, 34.60, 34.60, 34.61,
(PID.TID 0000.0001) >         34.62, 34.63, 34.64, 34.65, 34.66, 34.67, 34.67, 34.68,
(PID.TID 0000.0001) >         34.69, 34.70, 34.71, 34.71, 34.72, 34.72, 34.73, 34.73,
(PID.TID 0000.0001) >         34.73, 34.74, 34.74, 34.74, 34.74, 34.75, 34.74, 34.74,
(PID.TID 0000.0001) >         34.74, 34.74, 34.74, 34.74, 34.74, 34.74, 34.73, 34.73,
(PID.TID 0000.0001) >         34.73, 34.73, 34.73, 34.73,
(PID.TID 0000.0001) > rhonil        = 1029.,
(PID.TID 0000.0001) > rhoConstFresh = 1000.,
(PID.TID 0000.0001) > eosType = 'JMD95Z',
(PID.TID 0000.0001) >#
(PID.TID 0000.0001) >## Various prescriptions for viscosity and diffusivity.
(PID.TID 0000.0001) > viscAr     = 5.e-04,
(PID.TID 0000.0001) > viscA4Grid = 0.0,
(PID.TID 0000.0001) > diffKhT    = 0.E0,
(PID.TID 0000.0001) > diffKhS    = 0.E0,
(PID.TID 0000.0001) > diffK4T    = 0.E10,
(PID.TID 0000.0001) > diffK4S    = 0.E10,
(PID.TID 0000.0001) > diffKrT    = 1.0e-5,
(PID.TID 0000.0001) > diffKrS    = 1.0e-5,
(PID.TID 0000.0001) > bottomDragQuadratic = 0.002,
(PID.TID 0000.0001) > no_slip_sides     = .TRUE.,
(PID.TID 0000.0001) > no_slip_bottom    = .TRUE.,
(PID.TID 0000.0001) > implicitDiffusion = .TRUE.,
(PID.TID 0000.0001) > implicitViscosity = .TRUE.,
(PID.TID 0000.0001) ># horizontal momentum closure
(PID.TID 0000.0001) > viscC4Leith   = 2.0,
(PID.TID 0000.0001) > viscC4Leithd  = 2.0,
(PID.TID 0000.0001) > viscA4GridMax = 0.8,
(PID.TID 0000.0001) >#
(PID.TID 0000.0001) >## Parameters that control numerical methods like advection schemes and
(PID.TID 0000.0001) >#  treatment of the free-surface.
(PID.TID 0000.0001) > tempAdvScheme = 7,
(PID.TID 0000.0001) > saltAdvScheme = 7,
(PID.TID 0000.0001) > implicitFreeSurface     = .TRUE.,
(PID.TID 0000.0001) > staggerTimeStep         = .TRUE.,
(PID.TID 0000.0001) > exactConserv            = .TRUE.,
(PID.TID 0000.0001) > vectorInvariantMomentum = .TRUE.,
(PID.TID 0000.0001) > useAreaViscLength       = .TRUE.,
(PID.TID 0000.0001) > highOrderVorticity      = .TRUE.,
(PID.TID 0000.0001) > multiDimAdvection       = .TRUE.,
(PID.TID 0000.0001) >#
(PID.TID 0000.0001) >## These parameters seem to be associated with the external forcing.
(PID.TID 0000.0001) > convertFW2Salt = -1.,
(PID.TID 0000.0001) > temp_EvPrRn    =  0.,
(PID.TID 0000.0001) > useRealFreshWaterFlux = .FALSE.,
(PID.TID 0000.0001) > allowFreezing         = .FALSE.,
(PID.TID 0000.0001) >#
(PID.TID 0000.0001) >## Parameters associated with bathymetry specification.
(PID.TID 0000.0001) > hFacMin   = 0.2,
(PID.TID 0000.0001) > hFacMinDr = 5.,
(PID.TID 0000.0001) >#
(PID.TID 0000.0001) >## Parameters for reading, writing, and misc numerical details.
(PID.TID 0000.0001) > globalFiles     = .TRUE.,
(PID.TID 0000.0001) > useSingleCpuIO  = .TRUE.,
(PID.TID 0000.0001) > readBinaryPrec  = 32,
(PID.TID 0000.0001) > writeBinaryPrec = 32,
(PID.TID 0000.0001) > debuglevel      = 2,
(PID.TID 0000.0001) >#
(PID.TID 0000.0001) >## Unused parameters.
(PID.TID 0000.0001) ># gravity = 9.81,
(PID.TID 0000.0001) ># viscA4Grid = 2.0E-3,
(PID.TID 0000.0001) ># viscAhGrid = 2.5E-4,
(PID.TID 0000.0001) ># bottomDraglinear    = 1.E-3,
(PID.TID 0000.0001) ># Note: nonlinFreeSurf=1 with rStar=0 breaks the code.
(PID.TID 0000.0001) ># nonlinFreeSurf = 4,
(PID.TID 0000.0001) ># select_rStar   = 1,
(PID.TID 0000.0001) ># hFacInf   = 0.1,
(PID.TID 0000.0001) ># hFacSup   = 5.,
(PID.TID 0000.0001) ># implicSurfPress = 0.6,
(PID.TID 0000.0001) ># implicDiv2DFlow = 0.6,
(PID.TID 0000.0001) ># useSingleCpuInput = .TRUE.,
(PID.TID 0000.0001) ># set to eccov4, make sure minbathy=20m first
(PID.TID 0000.0001) ># debuglevel = -1,
(PID.TID 0000.0001) ># useJamartWetPoints = .TRUE.,
(PID.TID 0000.0001) ># writeBinaryPrec=64,
(PID.TID 0000.0001) > /
(PID.TID 0000.0001) >### Elliptic solver parameters ------------------------------------------------
(PID.TID 0000.0001) > &PARM02
(PID.TID 0000.0001) > cg2dMaxIters       = 1000,
(PID.TID 0000.0001) ># cg2dTargetResidual = 1.E-8,
(PID.TID 0000.0001) > cg2dTargetResWunit = 1e-18,
(PID.TID 0000.0001) >#
(PID.TID 0000.0001) >#cg2dMaxIters       = 100,
(PID.TID 0000.0001) >#cg2dTargetResidual = 1.E-5,
(PID.TID 0000.0001) > &
(PID.TID 0000.0001) >### Time stepping parameters --------------------------------------------------
(PID.TID 0000.0001) > &PARM03
(PID.TID 0000.0001) > deltaT      =    240.,
(PID.TID 0000.0001) > nIter0      =  0,
(PID.TID 0000.0001) > nTimeSteps  =  15,
(PID.TID 0000.0001) > pChkptFreq  = 864000.,
(PID.TID 0000.0001) > monitorFreq =   240.,
(PID.TID 0000.0001) > abEps       = 0.1,
(PID.TID 0000.0001) >## It is unclear what these specify.
(PID.TID 0000.0001) > pickupStrictlyMatch = .FALSE.,
(PID.TID 0000.0001) > forcing_In_AB       = .FALSE.,
(PID.TID 0000.0001) > momDissip_In_AB     = .FALSE.,
(PID.TID 0000.0001) > dumpInitAndLast     = .FALSE.,
(PID.TID 0000.0001) > /
(PID.TID 0000.0001) >### Gridding parameters -------------------------------------------------------
(PID.TID 0000.0001) > &PARM04
(PID.TID 0000.0001) > usingSphericalPolarGrid=.TRUE.,
(PID.TID 0000.0001) >## Specify the height of each vertical level.
(PID.TID 0000.0001) > delR =   5.00,   5.00,   5.00,   5.00,   5.00,   5.00,   5.00,   5.00,   5.00,
(PID.TID 0000.0001) >          5.00,   5.00,   5.00,   5.00,   5.00,   5.00,   5.01,   5.01,   5.02,
(PID.TID 0000.0001) >          5.04,   5.07,   5.12,   5.20,   5.31,   5.49,   5.72,   6.04,   6.45,
(PID.TID 0000.0001) >          6.97,   7.62,   8.42,   9.36,  10.46,  11.72,  13.13,  14.70,  16.40,
(PID.TID 0000.0001) >         18.24,  20.18,  22.21,  24.29,  26.43,  28.57,  30.71,  32.79,  34.82,
(PID.TID 0000.0001) >         36.76,  38.60,  40.30,  41.87,  43.28,  44.54,  45.64,  46.58,  47.38,
(PID.TID 0000.0001) >         48.03,  48.55,  48.96,  49.29,  49.53,  49.72,  49.90,  50.11,  50.41,
(PID.TID 0000.0001) >         50.92,  51.69,  52.87,  54.54,  56.79,  59.67,  63.16,  67.26,  71.83,
(PID.TID 0000.0001) >         76.83,  82.11,  87.61,  93.22,  98.91, 104.64, 110.38, 116.12, 121.87,
(PID.TID 0000.0001) >        127.63, 133.38, 139.12, 144.87, 150.63, 156.38, 162.12, 167.87, 173.63,
(PID.TID 0000.0001) >        179.38, 185.12, 190.87, 196.63, 202.38, 208.12, 213.87, 219.63, 225.38,
(PID.TID 0000.0001) >        231.12,
(PID.TID 0000.0001) > xgOrigin=-81.583335876464844,
(PID.TID 0000.0001) > dxSpacing=0.041666666666667,
(PID.TID 0000.0001) > ygOrigin=26.855293273925781,
(PID.TID 0000.0001) > delYFile = 'delYFile',
(PID.TID 0000.0001) > /
(PID.TID 0000.0001) ># -----------------------------------------------------------------------------
(PID.TID 0000.0001) >### Bathymetry files and initial condition files
(PID.TID 0000.0001) > &PARM05
(PID.TID 0000.0001) > bathyFile       = 'bathy.bin',
(PID.TID 0000.0001) > hydrogThetaFile = 'T0_1815x532x100.bin',
(PID.TID 0000.0001) > hydrogSaltFile  = 'S0_1815x532x100.bin',
(PID.TID 0000.0001) > uVelInitFile    = 'U0_1815x532x100.bin',
(PID.TID 0000.0001) > vVelInitFile    = 'V0_1815x532x100.bin',
(PID.TID 0000.0001) > /
(PID.TID 0000.0001) 
(PID.TID 0000.0001)  INI_PARMS ; starts to read PARM01
(PID.TID 0000.0001)  INI_PARMS ; read PARM01 : OK
(PID.TID 0000.0001)  INI_PARMS ; starts to read PARM02
(PID.TID 0000.0001)  INI_PARMS ; read PARM02 : OK
(PID.TID 0000.0001)  INI_PARMS ; starts to read PARM03
(PID.TID 0000.0001)  INI_PARMS ; read PARM03 : OK
(PID.TID 0000.0001)  INI_PARMS ; starts to read PARM04
(PID.TID 0000.0001)  INI_PARMS ; read PARM04 : OK
(PID.TID 0000.0001)  INI_PARMS ; starts to read PARM05
(PID.TID 0000.0001)  INI_PARMS ; read PARM05 : OK
(PID.TID 0000.0001)  INI_PARMS: finished reading file "data"
(PID.TID 0000.0001)  PACKAGES_BOOT: opening data.pkg
(PID.TID 0000.0001)  OPEN_COPY_DATA_FILE: opening file data.pkg
(PID.TID 0000.0001) // =======================================================
(PID.TID 0000.0001) // Parameter file "data.pkg"
(PID.TID 0000.0001) // =======================================================
(PID.TID 0000.0001) ># Packages
(PID.TID 0000.0001) > &PACKAGES
(PID.TID 0000.0001) > useCAL         = .TRUE.,
(PID.TID 0000.0001) > useEXF         = .TRUE.,
(PID.TID 0000.0001) > useKPP         = .TRUE.,
(PID.TID 0000.0001) > useDiagnostics = .TRUE.,
(PID.TID 0000.0001) > useOBCS        = .TRUE.,
(PID.TID 0000.0001) ># useProfiles=.TRUE.,
(PID.TID 0000.0001) > /
(PID.TID 0000.0001) 
(PID.TID 0000.0001)  PACKAGES_BOOT: finished reading data.pkg
(PID.TID 0000.0001)  PACKAGES_BOOT: On/Off package Summary
 --------  pkgs with a standard "usePKG" On/Off switch in "data.pkg":  --------
 pkg/obcs                 compiled   and   used ( useOBCS                  = T )
 pkg/kpp                  compiled   and   used ( useKPP                   = T )
 pkg/cal                  compiled   and   used ( useCAL                   = T )
 pkg/exf                  compiled   and   used ( useEXF                   = T )
 pkg/diagnostics          compiled   and   used ( useDiagnostics           = T )
 -------- pkgs without standard "usePKG" On/Off switch in "data.pkg":  --------
 pkg/generic_advdiff      compiled   and   used ( useGAD                   = T )
 pkg/mom_common           compiled   and   used ( momStepping              = T )
 pkg/mom_vecinv           compiled   and   used ( +vectorInvariantMomentum = T )
 pkg/monitor              compiled   and   used ( monitorFreq > 0.         = T )
 pkg/debug                compiled but not used ( debugMode                = F )
 pkg/exch2                compiled   and   used
 pkg/rw                   compiled   and   used
 pkg/mdsio                compiled   and   used
(PID.TID 0000.0001)  PACKAGES_BOOT: End of package Summary
(PID.TID 0000.0001) 
(PID.TID 0000.0001) CAL_READPARMS: opening data.cal
(PID.TID 0000.0001)  OPEN_COPY_DATA_FILE: opening file data.cal
(PID.TID 0000.0001) // =======================================================
(PID.TID 0000.0001) // Parameter file "data.cal"
(PID.TID 0000.0001) // =======================================================
(PID.TID 0000.0001) >#
(PID.TID 0000.0001) ># *******************
(PID.TID 0000.0001) ># Calendar Parameters
(PID.TID 0000.0001) ># *******************
(PID.TID 0000.0001) > &CAL_NML
(PID.TID 0000.0001) > TheCalendar='gregorian',
(PID.TID 0000.0001) > startDate_1=20080101,
(PID.TID 0000.0001) > startDate_2=000000,
(PID.TID 0000.0001) > calendarDumps = .TRUE.,
(PID.TID 0000.0001) > &
(PID.TID 0000.0001) 
(PID.TID 0000.0001) CAL_READPARMS: finished reading data.cal
(PID.TID 0000.0001) EXF_READPARMS: opening data.exf
(PID.TID 0000.0001)  OPEN_COPY_DATA_FILE: opening file data.exf
(PID.TID 0000.0001) // =======================================================
(PID.TID 0000.0001) // Parameter file "data.exf"
(PID.TID 0000.0001) // =======================================================
(PID.TID 0000.0001) ># *********************
(PID.TID 0000.0001) ># External Forcing Data
(PID.TID 0000.0001) ># *********************
(PID.TID 0000.0001) >#
(PID.TID 0000.0001) > &EXF_NML_01
(PID.TID 0000.0001) >#
(PID.TID 0000.0001) > useAtmWind        = .TRUE.,
(PID.TID 0000.0001) >#
(PID.TID 0000.0001) >#TO COMBINE WITH ALLOW_ZENITH_ANGLE:
(PID.TID 0000.0001) > exf_albedo        = 0.1,
(PID.TID 0000.0001) > useExfZenIncoming = .TRUE.,
(PID.TID 0000.0001) > select_ZenAlbedo  = 1,
(PID.TID 0000.0001) >#
(PID.TID 0000.0001) > ocean_emissivity  = 0.97,
(PID.TID 0000.0001) > ice_emissivity    = 0.95,
(PID.TID 0000.0001) > snow_emissivity   = 0.95,
(PID.TID 0000.0001) > exf_iprec         = 32,
(PID.TID 0000.0001) > exf_iprec_obcs    = 32,
(PID.TID 0000.0001) > exf_yftype        = 'RL',
(PID.TID 0000.0001) > useExfYearlyFields= .TRUE.,
(PID.TID 0000.0001) > useExfCheckRange  = .FALSE.,
(PID.TID 0000.0001) > useRelativeWind   = .TRUE.,
(PID.TID 0000.0001) > &
(PID.TID 0000.0001) >#
(PID.TID 0000.0001) > &EXF_NML_02
(PID.TID 0000.0001) > apressurefile     = 'era5/ERA5_pres',
(PID.TID 0000.0001) > atempfile         = 'era5/ERA5_tmp2m_degC',
(PID.TID 0000.0001) > aqhfile           = 'era5/ERA5_spfh2m',
(PID.TID 0000.0001) > precipfile        = 'era5/ERA5_rain',
(PID.TID 0000.0001) > uwindfile         = 'era5/ERA5_u10m',
(PID.TID 0000.0001) > vwindfile         = 'era5/ERA5_v10m',
(PID.TID 0000.0001) > swdownfile        = 'era5/ERA5_dsw',
(PID.TID 0000.0001) > lwdownfile        = 'era5/ERA5_dlw',
(PID.TID 0000.0001) > tidePotfile       = 'tide_IAU_EARTH',
(PID.TID 0000.0001) > runofffile        = 'runoff1p2472-360x180x12.bin',
(PID.TID 0000.0001) >#
(PID.TID 0000.0001) > apressurestartdate1 = 19920101,
(PID.TID 0000.0001) > apressurestartdate2 = 000000,
(PID.TID 0000.0001) > apressureperiod   = 3600.0,
(PID.TID 0000.0001) >#
(PID.TID 0000.0001) > atempstartdate1   = 19920101,
(PID.TID 0000.0001) > atempstartdate2   = 000000,
(PID.TID 0000.0001) > atempperiod       = 3600.0,
(PID.TID 0000.0001) >#
(PID.TID 0000.0001) > aqhstartdate1     = 19920101,
(PID.TID 0000.0001) > aqhstartdate2     = 000000,
(PID.TID 0000.0001) > aqhperiod         = 3600.0,
(PID.TID 0000.0001) >#
(PID.TID 0000.0001) > precipstartdate1  = 19920101,
(PID.TID 0000.0001) > precipstartdate2  = 003000,
(PID.TID 0000.0001) > precipperiod      = 3600.0,
(PID.TID 0000.0001) >#
(PID.TID 0000.0001) > uwindstartdate1   = 19920101,
(PID.TID 0000.0001) > uwindstartdate2   = 000000,
(PID.TID 0000.0001) > uwindperiod       = 3600.0,
(PID.TID 0000.0001) >#
(PID.TID 0000.0001) > vwindstartdate1   = 19920101,
(PID.TID 0000.0001) > vwindstartdate2   = 000000,
(PID.TID 0000.0001) > vwindperiod       = 3600.0,
(PID.TID 0000.0001) >#
(PID.TID 0000.0001) > swdownstartdate1  = 19920101,
(PID.TID 0000.0001) > swdownstartdate2  = 003000,
(PID.TID 0000.0001) > swdownperiod      = 3600.0,
(PID.TID 0000.0001) >#
(PID.TID 0000.0001) > lwdownstartdate1  = 19920101,
(PID.TID 0000.0001) > lwdownstartdate2  = 003000,
(PID.TID 0000.0001) > lwdownperiod      = 3600.0,
(PID.TID 0000.0001) > tidePotstartdate1  = 19790101,
(PID.TID 0000.0001) > tidePotstartdate2  = 000000,
(PID.TID 0000.0001) > tidePotperiod      = 3600.0,
(PID.TID 0000.0001) ># "*period=-12" specifies monthly-mean forcing
(PID.TID 0000.0001) > runoffperiod      = -12,
(PID.TID 0000.0001) > &
(PID.TID 0000.0001) >#
(PID.TID 0000.0001) > &EXF_NML_03
(PID.TID 0000.0001) > exf_offset_atemp   = 273.15,
(PID.TID 0000.0001) > exf_inscal_swdown  = -1.0,
(PID.TID 0000.0001) > exf_inscal_lwdown  = -1.0,
(PID.TID 0000.0001) ># 1/365/24/3600 yr/s conversion, runoff [m/yr --> m/s]
(PID.TID 0000.0001) > exf_inscal_runoff = 3.1710e-08,
(PID.TID 0000.0001) > &
(PID.TID 0000.0001) >#
(PID.TID 0000.0001) > &EXF_NML_04
(PID.TID 0000.0001) ># runoff_interpMethod = 0,
(PID.TID 0000.0001) >#
(PID.TID 0000.0001) > apressure_lon0    =   0.0000000D0,
(PID.TID 0000.0001) > apressure_lon_inc =   0.2812500D0,
(PID.TID 0000.0001) > apressure_lat0    = -89.7848850D0,
(PID.TID 0000.0001) > apressure_lat_inc = 0.2786766D0,0.2803199D0,0.2806917D0,0.2808328D0,0.2809011D0,0.2809392D0,0.2809626D0,0.2809781D0,
(PID.TID 0000.0001) >                     0.2809888D0,0.2809965D0,0.2810023D0,0.2810067D0,0.2810102D0,0.2810129D0,0.2810151D0,
(PID.TID 0000.0001) >                     33*0.2810258D0,543*0.2810302D0,33*0.2810258D0,
(PID.TID 0000.0001) >                     0.2810151D0,0.2810129D0,0.2810102D0,0.2810067D0,0.2810023D0,0.2809965D0,0.2809888D0,0.2809781D0,
(PID.TID 0000.0001) >                     0.2809626D0,0.2809392D0,0.2809011D0,0.2808328D0,0.2806917D0,0.2803199D0,0.2786766D0,
(PID.TID 0000.0001) > apressure_nlon    = 1280,
(PID.TID 0000.0001) > apressure_nlat    = 640,
(PID.TID 0000.0001) >#
(PID.TID 0000.0001) > atemp_lon0        =   0.0000000D0,
(PID.TID 0000.0001) > atemp_lon_inc     =   0.2812500D0,
(PID.TID 0000.0001) > atemp_lat0        = -89.7848850D0,
(PID.TID 0000.0001) > atemp_lat_inc     = 0.2786766D0,0.2803199D0,0.2806917D0,0.2808328D0,0.2809011D0,0.2809392D0,0.2809626D0,0.2809781D0,
(PID.TID 0000.0001) >                     0.2809888D0,0.2809965D0,0.2810023D0,0.2810067D0,0.2810102D0,0.2810129D0,0.2810151D0,
(PID.TID 0000.0001) >                     33*0.2810258D0,543*0.2810302D0,33*0.2810258D0,
(PID.TID 0000.0001) >                     0.2810151D0,0.2810129D0,0.2810102D0,0.2810067D0,0.2810023D0,0.2809965D0,0.2809888D0,0.2809781D0,
(PID.TID 0000.0001) >                     0.2809626D0,0.2809392D0,0.2809011D0,0.2808328D0,0.2806917D0,0.2803199D0,0.2786766D0,
(PID.TID 0000.0001) > atemp_nlon        = 1280,
(PID.TID 0000.0001) > atemp_nlat        = 640,
(PID.TID 0000.0001) >#
(PID.TID 0000.0001) > aqh_lon0        =   0.0000000D0,
(PID.TID 0000.0001) > aqh_lon_inc     =   0.2812500D0,
(PID.TID 0000.0001) > aqh_lat0        = -89.7848850D0,
(PID.TID 0000.0001) > aqh_lat_inc     = 0.2786766D0,0.2803199D0,0.2806917D0,0.2808328D0,0.2809011D0,0.2809392D0,0.2809626D0,0.2809781D0,
(PID.TID 0000.0001) >                     0.2809888D0,0.2809965D0,0.2810023D0,0.2810067D0,0.2810102D0,0.2810129D0,0.2810151D0,
(PID.TID 0000.0001) >                     33*0.2810258D0,543*0.2810302D0,33*0.2810258D0,
(PID.TID 0000.0001) >                     0.2810151D0,0.2810129D0,0.2810102D0,0.2810067D0,0.2810023D0,0.2809965D0,0.2809888D0,0.2809781D0,
(PID.TID 0000.0001) >                     0.2809626D0,0.2809392D0,0.2809011D0,0.2808328D0,0.2806917D0,0.2803199D0,0.2786766D0,
(PID.TID 0000.0001) > aqh_nlon        = 1280,
(PID.TID 0000.0001) > aqh_nlat        = 640,
(PID.TID 0000.0001) >#
(PID.TID 0000.0001) > precip_lon0        =   0.0000000D0,
(PID.TID 0000.0001) > precip_lon_inc     =   0.2812500D0,
(PID.TID 0000.0001) > precip_lat0        = -89.7848850D0,
(PID.TID 0000.0001) > precip_lat_inc     = 0.2786766D0,0.2803199D0,0.2806917D0,0.2808328D0,0.2809011D0,0.2809392D0,0.2809626D0,0.2809781D0,
(PID.TID 0000.0001) >                     0.2809888D0,0.2809965D0,0.2810023D0,0.2810067D0,0.2810102D0,0.2810129D0,0.2810151D0,
(PID.TID 0000.0001) >                     33*0.2810258D0,543*0.2810302D0,33*0.2810258D0,
(PID.TID 0000.0001) >                     0.2810151D0,0.2810129D0,0.2810102D0,0.2810067D0,0.2810023D0,0.2809965D0,0.2809888D0,0.2809781D0,
(PID.TID 0000.0001) >                     0.2809626D0,0.2809392D0,0.2809011D0,0.2808328D0,0.2806917D0,0.2803199D0,0.2786766D0,
(PID.TID 0000.0001) > precip_nlon        = 1280,
(PID.TID 0000.0001) > precip_nlat        = 640,
(PID.TID 0000.0001) >#
(PID.TID 0000.0001) > uwind_lon0        =   0.0000000D0,
(PID.TID 0000.0001) > uwind_lon_inc     =   0.2812500D0,
(PID.TID 0000.0001) > uwind_lat0        = -89.7848850D0,
(PID.TID 0000.0001) > uwind_lat_inc     = 0.2786766D0,0.2803199D0,0.2806917D0,0.2808328D0,0.2809011D0,0.2809392D0,0.2809626D0,0.2809781D0,
(PID.TID 0000.0001) >                     0.2809888D0,0.2809965D0,0.2810023D0,0.2810067D0,0.2810102D0,0.2810129D0,0.2810151D0,
(PID.TID 0000.0001) >                     33*0.2810258D0,543*0.2810302D0,33*0.2810258D0,
(PID.TID 0000.0001) >                     0.2810151D0,0.2810129D0,0.2810102D0,0.2810067D0,0.2810023D0,0.2809965D0,0.2809888D0,0.2809781D0,
(PID.TID 0000.0001) >                     0.2809626D0,0.2809392D0,0.2809011D0,0.2808328D0,0.2806917D0,0.2803199D0,0.2786766D0,
(PID.TID 0000.0001) > uwind_nlon        = 1280,
(PID.TID 0000.0001) > uwind_nlat        = 640,
(PID.TID 0000.0001) >#
(PID.TID 0000.0001) > vwind_lon0        =   0.0000000D0,
(PID.TID 0000.0001) > vwind_lon_inc     =   0.2812500D0,
(PID.TID 0000.0001) > vwind_lat0        = -89.7848850D0,
(PID.TID 0000.0001) > vwind_lat_inc     = 0.2786766D0,0.2803199D0,0.2806917D0,0.2808328D0,0.2809011D0,0.2809392D0,0.2809626D0,0.2809781D0,
(PID.TID 0000.0001) >                     0.2809888D0,0.2809965D0,0.2810023D0,0.2810067D0,0.2810102D0,0.2810129D0,0.2810151D0,
(PID.TID 0000.0001) >                     33*0.2810258D0,543*0.2810302D0,33*0.2810258D0,
(PID.TID 0000.0001) >                     0.2810151D0,0.2810129D0,0.2810102D0,0.2810067D0,0.2810023D0,0.2809965D0,0.2809888D0,0.2809781D0,
(PID.TID 0000.0001) >                     0.2809626D0,0.2809392D0,0.2809011D0,0.2808328D0,0.2806917D0,0.2803199D0,0.2786766D0,
(PID.TID 0000.0001) > vwind_nlon        = 1280,
(PID.TID 0000.0001) > vwind_nlat        = 640,
(PID.TID 0000.0001) >#
(PID.TID 0000.0001) > swdown_lon0        =   0.0000000D0,
(PID.TID 0000.0001) > swdown_lon_inc     =   0.2812500D0,
(PID.TID 0000.0001) > swdown_lat0        = -89.7848850D0,
(PID.TID 0000.0001) > swdown_lat_inc     = 0.2786766D0,0.2803199D0,0.2806917D0,0.2808328D0,0.2809011D0,0.2809392D0,0.2809626D0,0.2809781D0,
(PID.TID 0000.0001) >                     0.2809888D0,0.2809965D0,0.2810023D0,0.2810067D0,0.2810102D0,0.2810129D0,0.2810151D0,
(PID.TID 0000.0001) >                     33*0.2810258D0,543*0.2810302D0,33*0.2810258D0,
(PID.TID 0000.0001) >                     0.2810151D0,0.2810129D0,0.2810102D0,0.2810067D0,0.2810023D0,0.2809965D0,0.2809888D0,0.2809781D0,
(PID.TID 0000.0001) >                     0.2809626D0,0.2809392D0,0.2809011D0,0.2808328D0,0.2806917D0,0.2803199D0,0.2786766D0,
(PID.TID 0000.0001) > swdown_nlon        = 1280,
(PID.TID 0000.0001) > swdown_nlat        = 640,
(PID.TID 0000.0001) >#
(PID.TID 0000.0001) > lwdown_lon0        =   0.0000000D0,
(PID.TID 0000.0001) > lwdown_lon_inc     =   0.2812500D0,
(PID.TID 0000.0001) > lwdown_lat0        = -89.7848850D0,
(PID.TID 0000.0001) > lwdown_lat_inc     = 0.2786766D0,0.2803199D0,0.2806917D0,0.2808328D0,0.2809011D0,0.2809392D0,0.2809626D0,0.2809781D0,
(PID.TID 0000.0001) >                     0.2809888D0,0.2809965D0,0.2810023D0,0.2810067D0,0.2810102D0,0.2810129D0,0.2810151D0,
(PID.TID 0000.0001) >                     33*0.2810258D0,543*0.2810302D0,33*0.2810258D0,
(PID.TID 0000.0001) >                     0.2810151D0,0.2810129D0,0.2810102D0,0.2810067D0,0.2810023D0,0.2809965D0,0.2809888D0,0.2809781D0,
(PID.TID 0000.0001) >                     0.2809626D0,0.2809392D0,0.2809011D0,0.2808328D0,0.2806917D0,0.2803199D0,0.2786766D0,
(PID.TID 0000.0001) > lwdown_nlon        = 1280,
(PID.TID 0000.0001) > lwdown_nlat        = 640,
(PID.TID 0000.0001) >#
(PID.TID 0000.0001) > tidePot_lon0       = 0.0D0,
(PID.TID 0000.0001) > tidePot_lon_inc    = 1.0D0,
(PID.TID 0000.0001) > tidePot_lat0       = -90.0D0,
(PID.TID 0000.0001) > tidePot_lat_inc    = 180*1.0D0,
(PID.TID 0000.0001) > tidePot_nlon       = 360,
(PID.TID 0000.0001) > tidePot_nlat       = 181,
(PID.TID 0000.0001) >#
(PID.TID 0000.0001) > runoff_lon0       = 0.50D0,
(PID.TID 0000.0001) > runoff_lon_inc    = 1.0D0,
(PID.TID 0000.0001) > runoff_lat0       = -89.5D0,
(PID.TID 0000.0001) > runoff_lat_inc    = 179*1.,
(PID.TID 0000.0001) > runoff_nlon       = 360,
(PID.TID 0000.0001) > runoff_nlat       = 180,
(PID.TID 0000.0001) > &
(PID.TID 0000.0001) >#
(PID.TID 0000.0001) > &EXF_NML_OBCS
(PID.TID 0000.0001) >  obcsSstartdate1   = 20071215,
(PID.TID 0000.0001) >  obcsSstartdate2   = 060000,
(PID.TID 0000.0001) >  obcsSperiod       = 2629800.0,
(PID.TID 0000.0001) >#
(PID.TID 0000.0001) >  obcsNstartdate1   = 20071215,
(PID.TID 0000.0001) >  obcsNstartdate2   = 060000,
(PID.TID 0000.0001) >  obcsNperiod       = 2629800.0,
(PID.TID 0000.0001) > &
(PID.TID 0000.0001) 
(PID.TID 0000.0001) EXF_READPARMS: reading EXF_NML_01
(PID.TID 0000.0001) EXF_READPARMS: reading EXF_NML_02
(PID.TID 0000.0001) EXF_READPARMS: reading EXF_NML_03
(PID.TID 0000.0001) EXF_READPARMS: reading EXF_NML_04
(PID.TID 0000.0001) EXF_READPARMS: reading EXF_NML_OBCS
(PID.TID 0000.0001) EXF_READPARMS: finished reading data.exf
(PID.TID 0000.0001)  OBCS_READPARMS: opening data.obcs
(PID.TID 0000.0001)  OPEN_COPY_DATA_FILE: opening file data.obcs
(PID.TID 0000.0001) // =======================================================
(PID.TID 0000.0001) // Parameter file "data.obcs"
(PID.TID 0000.0001) // =======================================================
(PID.TID 0000.0001) ># ***************
(PID.TID 0000.0001) ># Open boundaries
(PID.TID 0000.0001) ># ***************
(PID.TID 0000.0001) > &OBCS_PARM01
(PID.TID 0000.0001) >OB_Jnorth = 1815*531,
(PID.TID 0000.0001) >OB_Jsouth = 1815*2,
(PID.TID 0000.0001) >#
(PID.TID 0000.0001) > useOBCSprescribe=.TRUE.,
(PID.TID 0000.0001) ># useOBCSsponge=.true.,
(PID.TID 0000.0001) > OBCS_monSelect = 3,
(PID.TID 0000.0001) ># >0: use 1rst O. upwind adv-scheme @ OB (=1: only if outflow)
(PID.TID 0000.0001) > OBCS_u1_adv_T = 1,
(PID.TID 0000.0001) > OBCS_u1_adv_S = 1,
(PID.TID 0000.0001) >#
(PID.TID 0000.0001) > OBSsFile='OBSs_1815x100x12.bin',
(PID.TID 0000.0001) > OBStFile='OBSt_1815x100x12.bin',
(PID.TID 0000.0001) > OBSuFile='OBSu_1815x100x12.bin',
(PID.TID 0000.0001) > OBSvFile='OBSv_1815x100x12.bin',
(PID.TID 0000.0001) >#
(PID.TID 0000.0001) > OBNsFile='OBNs_1815x100x12.bin',
(PID.TID 0000.0001) > OBNtFile='OBNt_1815x100x12.bin',
(PID.TID 0000.0001) > OBNuFile='OBNu_1815x100x12.bin',
(PID.TID 0000.0001) > OBNvFile='OBNv_1815x100x12.bin',
(PID.TID 0000.0001) ># Balancing
(PID.TID 0000.0001) > useOBCSbalance = .TRUE.,
(PID.TID 0000.0001) > OBCS_balanceFacN = -1,
(PID.TID 0000.0001) > OBCS_balanceFacS = -1,
(PID.TID 0000.0001) >## *****************************************
(PID.TID 0000.0001) >## Tidal BC parameters
(PID.TID 0000.0001) >## *****************************************
(PID.TID 0000.0001) > useOBCStides = .TRUE.,
(PID.TID 0000.0001) >##components   = M2       S2     N2       K2       K1      O1       P1       Q1       Mf         Mm
(PID.TID 0000.0001) >##periods (hr) = 12.4206  12     12.6583  11.9672  23.9345 25.8193  24.0659  26.8684  327.8599   661.31
(PID.TID 0000.0001) >##period(sec)  = 44714.165 43200.001 45570.054 43082.05 86164.077 92949.636 86637.2 96726.086 1180295.5 2380715.9
(PID.TID 0000.0001) >##components      m2        s2        n2        k2        k1        o1        p1        q1        mf        mm        m4        ms4       mn4
(PID.TID 0000.0001) >##period (hr): 12.420601 12.000000 12.658348 11.967236 23.934466 25.819343 24.065889 26.868357 327.859874 661.309962 6.210303 6.103339 6.269178
(PID.TID 0000.0001) >##period (s):  44714.165192 43200.001287 45570.053512 43082.050319 86164.077005 92949.635701 86637.199772 96726.085703 1180295.545550 2380715.863587 22357.090551 21972.021930 22569.042448
(PID.TID 0000.0001) >##components      m2        s2        n2        k2        k1        o1        p1        q1        m4        ms4         mn4        mm           mf
(PID.TID 0000.0001) > tidalPeriod  = 44714.165 43200.001 45570.054 43082.050 86164.077 92949.636 86637.200 96726.086 22357.091 21972.022 22569.042 2380715.864 1180295.546,
(PID.TID 0000.0001) > OBSamFile='OBSvam_1815x13.bin',
(PID.TID 0000.0001) > OBNamFile='OBNvam_1815x13.bin',
(PID.TID 0000.0001) > OBSphFile='OBSvph_1815x13.bin',
(PID.TID 0000.0001) > OBNphFile='OBNvph_1815x13.bin',
(PID.TID 0000.0001) > &
(PID.TID 0000.0001) ># *****************************************
(PID.TID 0000.0001) ># Sponge Layer Parameters.
(PID.TID 0000.0001) ># *****************************************
(PID.TID 0000.0001) > &OBCS_PARM03
(PID.TID 0000.0001) ># Urelaxobcsinner=2629800.E0,
(PID.TID 0000.0001) ># Urelaxobcsbound=43200.E0,
(PID.TID 0000.0001) >#
(PID.TID 0000.0001) ># Vrelaxobcsinner=2629800.E0,
(PID.TID 0000.0001) ># Vrelaxobcsbound=43200.E0,
(PID.TID 0000.0001) >#
(PID.TID 0000.0001) ># spongeThickness=16,
(PID.TID 0000.0001) > &
(PID.TID 0000.0001) 
(PID.TID 0000.0001)  OBCS_READPARMS: finished reading data.obcs
(PID.TID 0000.0001)  OB_indexUnset = /* unset OB index value (i.e. no OB) */
(PID.TID 0000.0001)                       0
(PID.TID 0000.0001)     ;
(PID.TID 0000.0001)  Northern OB global indices : OB_Jnorth =
(PID.TID 0000.0001)  1815 @      531                            /* I =  1:*** */
(PID.TID 0000.0001)  Southern OB global indices : OB_Jsouth =
(PID.TID 0000.0001)  1815 @        2                            /* I =  1:*** */
(PID.TID 0000.0001)  Eastern  OB global indices : OB_Ieast =
(PID.TID 0000.0001)   532 @        0                            /* J =  1:532 */
(PID.TID 0000.0001)  Western  OB global indices : OB_Iwest =
(PID.TID 0000.0001)   532 @        0                            /* J =  1:532 */
(PID.TID 0000.0001) 
(PID.TID 0000.0001)  KPP_READPARMS: opening data.kpp
(PID.TID 0000.0001)  OPEN_COPY_DATA_FILE: opening file data.kpp
(PID.TID 0000.0001) // =======================================================
(PID.TID 0000.0001) // Parameter file "data.kpp"
(PID.TID 0000.0001) // =======================================================
(PID.TID 0000.0001) ># KPP parameters
(PID.TID 0000.0001) > &KPP_PARM01
(PID.TID 0000.0001) >### KPPmixingMaps   = .FALSE.,
(PID.TID 0000.0001) >### KPPwriteState   = .FALSE.,
(PID.TID 0000.0001) >### kpp_dumpFreq    = 0.,
(PID.TID 0000.0001) >### kpp_tavefreq    = 0.,
(PID.TID 0000.0001) >### Ricr            = 0.3559,
(PID.TID 0000.0001) >### Riinfty         = 0.6998,
(PID.TID 0000.0001) > &
(PID.TID 0000.0001) 
(PID.TID 0000.0001)  KPP_READPARMS ; starts to read KPP_PARM01
(PID.TID 0000.0001)  KPP_READPARMS ; read KPP_PARM01 : OK
(PID.TID 0000.0001)  KPP_READPARMS: finished reading data.kpp
(PID.TID 0000.0001)  DIAGNOSTICS_READPARMS: opening data.diagnostics
(PID.TID 0000.0001)  OPEN_COPY_DATA_FILE: opening file data.diagnostics
(PID.TID 0000.0001) // =======================================================
(PID.TID 0000.0001) // Parameter file "data.diagnostics"
(PID.TID 0000.0001) // =======================================================
(PID.TID 0000.0001) ># Diagnostic Package Choices
(PID.TID 0000.0001) >#-----------------
(PID.TID 0000.0001) ># for each output-stream:
(PID.TID 0000.0001) >#  filename(n) : prefix of the output file name (only 8.c long) for outp.stream n
(PID.TID 0000.0001) >#  frequency(n):< 0 : write snap-shot output every multiple of |frequency| (iter)
(PID.TID 0000.0001) >#               > 0 : write time-average output every multiple of frequency (iter)
(PID.TID 0000.0001) >#  levels(:,n) : list of levels to write to file (Notes: declared as REAL)
(PID.TID 0000.0001) >#                 when this entry is missing, select all common levels of this list
(PID.TID 0000.0001) >#  fields(:,n) : list of diagnostics fields (8.c) (see "available_diagnostics" file
(PID.TID 0000.0001) >#                 for the list of all available diag. in this particular config)
(PID.TID 0000.0001) >#--------------------------------------------------------------------
(PID.TID 0000.0001) >#
(PID.TID 0000.0001) > &diagnostics_list
(PID.TID 0000.0001) >#
(PID.TID 0000.0001) >   dumpatlast = .TRUE.,
(PID.TID 0000.0001) >#
(PID.TID 0000.0001) >#---
(PID.TID 0000.0001) >  frequency(1) = 3600.0,
(PID.TID 0000.0001) >   fields(1:5,1) = 'ETAN', 'oceTAUX', 'oceTAUY', 'EXFuwind', 'EXFvwind',
(PID.TID 0000.0001) >   filename(1) = 'diags/surface',
(PID.TID 0000.0001) >#---
(PID.TID 0000.0001) >  frequency(2) = 2592000.0,
(PID.TID 0000.0001) >   fields(1:9,2)='THETA','SALT','UVEL','VVEL','WVEL','UVELSQ','VVELSQ','WTHMASS','WSLTMASS',
(PID.TID 0000.0001) >   filename(2) = 'diags/interior',
(PID.TID 0000.0001) >#   levels(1:55,2) =  1., 2., 3., 4., 5., 6., 7., 8., 9.,10.,11.,13.,15.,
(PID.TID 0000.0001) >#                     17.,19.,21.,23.,25.,27.,29.,31.,33.,35.,37.,39.,41.,43.,45.,
(PID.TID 0000.0001) >#                     47.,49.,51.,53.,55.,57.,59.,61.,63.,65.,67.,69.,71.,73.,75.,
(PID.TID 0000.0001) >#                     77.,79.,81.,83.,85.,87.,89.,91.,93.,95.,97.,99.,
(PID.TID 0000.0001) > /
(PID.TID 0000.0001) >#
(PID.TID 0000.0001) >#
(PID.TID 0000.0001) ># Parameter for Diagnostics of per level statistics:
(PID.TID 0000.0001) >#-----------------
(PID.TID 0000.0001) ># for each output-stream:
(PID.TID 0000.0001) >#  stat_fname(n) : prefix of the output file name (only 8.c long) for outp.stream n
(PID.TID 0000.0001) >#  stat_freq(n):< 0 : write snap-shot output every |stat_freq| seconds
(PID.TID 0000.0001) >#               > 0 : write time-average output every stat_freq seconds
(PID.TID 0000.0001) >#  stat_phase(n)    : write at time = stat_phase + multiple of |stat_freq|
(PID.TID 0000.0001) >#  stat_region(:,n) : list of "regions" (default: 1 region only=global)
(PID.TID 0000.0001) >#  stat_fields(:,n) : list of diagnostics fields (8.c) (see "available_diagnostics.log"
(PID.TID 0000.0001) >#                 file for the list of all available diag. in this particular config)
(PID.TID 0000.0001) >#-----------------
(PID.TID 0000.0001) > &DIAG_STATIS_PARMS
(PID.TID 0000.0001) ># diagSt_regMaskFile='basin_masks_eccollc_90x50.bin',
(PID.TID 0000.0001) ># nSetRegMskFile=1,
(PID.TID 0000.0001) ># set_regMask(1)= 1,  1,  1,  1,  1,  1,  1,  1,  1,
(PID.TID 0000.0001) >#                 1,  1,  1,  1,  1,  1,  1,  1
(PID.TID 0000.0001) ># val_regMask(1)= 1., 2., 3., 4., 5., 6., 7., 8., 9.,
(PID.TID 0000.0001) >#                10.,11.,12.,13.,14.,15.,16.,17.
(PID.TID 0000.0001) >##---
(PID.TID 0000.0001) ># stat_fields(1,1)= 'ETAN    ','ETANSQ  ','DETADT2 ',
(PID.TID 0000.0001) >#                   'UVEL    ','VVEL    ','WVEL    ',
(PID.TID 0000.0001) >#                   'THETA   ','SALT    ',
(PID.TID 0000.0001) >#    stat_fname(1)= 'dynStDiag',
(PID.TID 0000.0001) >#     stat_freq(1)= 3153600.,
(PID.TID 0000.0001) ># stat_region(1,1)=  1, 2, 3, 4, 5, 6, 7, 8, 9,
(PID.TID 0000.0001) >#                   10,11,12,13,14,15,16,17
(PID.TID 0000.0001) >##---
(PID.TID 0000.0001) ># stat_fields(1,2)= 'oceTAUX ','oceTAUY ',
(PID.TID 0000.0001) >#                   'surForcT','surForcS','TFLUX   ','SFLUX   ',
(PID.TID 0000.0001) >#                   'oceQnet ','oceSflux','oceFWflx',
(PID.TID 0000.0001) >#    stat_fname(2)= 'surfStDiag',
(PID.TID 0000.0001) >#     stat_freq(2)= 3153600.,
(PID.TID 0000.0001) ># stat_region(1,2)=  1, 2, 3, 4, 5, 6, 7, 8, 9,
(PID.TID 0000.0001) >#                   10,11,12,13,14,15,16,17
(PID.TID 0000.0001) > /
(PID.TID 0000.0001) 
(PID.TID 0000.0001) S/R DIAGNOSTICS_READPARMS, read namelist "diagnostics_list": start
(PID.TID 0000.0001) S/R DIAGNOSTICS_READPARMS, read namelist "diagnostics_list": OK
(PID.TID 0000.0001) S/R DIAGNOSTICS_READPARMS, read namelist "DIAG_STATIS_PARMS": start
(PID.TID 0000.0001) S/R DIAGNOSTICS_READPARMS, read namelist "DIAG_STATIS_PARMS": OK
(PID.TID 0000.0001)  DIAGNOSTICS_READPARMS: global parameter summary:
(PID.TID 0000.0001)  dumpAtLast = /* always write time-ave diags at the end */
(PID.TID 0000.0001)                   T
(PID.TID 0000.0001)     ;
(PID.TID 0000.0001)  diag_mnc =   /* write NetCDF output files */
(PID.TID 0000.0001)                   F
(PID.TID 0000.0001)     ;
(PID.TID 0000.0001)  useMissingValue = /* put MissingValue where mask = 0 */
(PID.TID 0000.0001)                   F
(PID.TID 0000.0001)     ;
(PID.TID 0000.0001)  diagCG_maxIters = /* max number of iters in diag_cg2d */
(PID.TID 0000.0001)                    1000
(PID.TID 0000.0001)     ;
(PID.TID 0000.0001)  diagCG_resTarget = /* residual target for diag_cg2d */
(PID.TID 0000.0001)                 1.000000000000000E-07
(PID.TID 0000.0001)     ;
(PID.TID 0000.0001)  diagCG_pcOffDFac = /* preconditioner off-diagonal factor */
(PID.TID 0000.0001)                 9.611687812379854E-01
(PID.TID 0000.0001)     ;
(PID.TID 0000.0001) -----------------------------------------------------
(PID.TID 0000.0001)  DIAGNOSTICS_READPARMS: active diagnostics summary:
(PID.TID 0000.0001) -----------------------------------------------------
(PID.TID 0000.0001) Creating Output Stream: diags/surface
(PID.TID 0000.0001) Output Frequency:       3600.000000 ; Phase:           0.000000
(PID.TID 0000.0001)  Averaging Freq.:       3600.000000 , Phase:           0.000000 , Cycle:   1
(PID.TID 0000.0001)  missing value: -9.990000000000E+02
(PID.TID 0000.0001)  Levels:    will be set later
(PID.TID 0000.0001)  Fields:    ETAN     oceTAUX  oceTAUY  EXFuwind EXFvwind
(PID.TID 0000.0001) Creating Output Stream: diags/interior
(PID.TID 0000.0001) Output Frequency:    2592000.000000 ; Phase:           0.000000
(PID.TID 0000.0001)  Averaging Freq.:    2592000.000000 , Phase:           0.000000 , Cycle:   1
(PID.TID 0000.0001)  missing value: -9.990000000000E+02
(PID.TID 0000.0001)  Levels:    will be set later
(PID.TID 0000.0001)  Fields:    THETA    SALT     UVEL     VVEL     WVEL     UVELSQ   VVELSQ   WTHMASS  WSLTMASS
(PID.TID 0000.0001) -----------------------------------------------------
(PID.TID 0000.0001)  DIAGNOSTICS_READPARMS: statistics diags. summary:
(PID.TID 0000.0001) -----------------------------------------------------
(PID.TID 0000.0001) 
(PID.TID 0000.0001) SET_PARMS: done
(PID.TID 0000.0001)  MDS_READVEC_LOC: open file: delYFile
(PID.TID 0000.0001) S/R LOAD_GRID_SPACING: delY loaded from file: delYFile
(PID.TID 0000.0001) Enter INI_VERTICAL_GRID: setInterFDr=    T ; setCenterDr=    F
(PID.TID 0000.0001) %MON XC_max                       =  -5.9791692097973E+00
(PID.TID 0000.0001) %MON XC_min                       =  -8.1562502543132E+01
(PID.TID 0000.0001) %MON XC_mean                      =  -4.3137201855846E+01
(PID.TID 0000.0001) %MON XC_sd                        =   2.0424998826490E+01
(PID.TID 0000.0001) %MON XG_max                       =  -6.0000025431306E+00
(PID.TID 0000.0001) %MON XG_min                       =  -8.1583335876465E+01
(PID.TID 0000.0001) %MON XG_mean                      =  -4.3158035189179E+01
(PID.TID 0000.0001) %MON XG_sd                        =   2.0424998826490E+01
(PID.TID 0000.0001) %MON DXC_max                      =   4.1321680787049E+03
(PID.TID 0000.0001) %MON DXC_min                      =   3.3626505081640E+03
(PID.TID 0000.0001) %MON DXC_mean                     =   3.7688379354867E+03
(PID.TID 0000.0001) %MON DXC_sd                       =   2.2123866065857E+02
(PID.TID 0000.0001) %MON DXF_max                      =   4.1321680787049E+03
(PID.TID 0000.0001) %MON DXF_min                      =   3.3626505081640E+03
(PID.TID 0000.0001) %MON DXF_mean                     =   3.7688379354867E+03
(PID.TID 0000.0001) %MON DXF_sd                       =   2.2123866065857E+02
(PID.TID 0000.0001) %MON DXG_max                      =   4.1327922661025E+03
(PID.TID 0000.0001) %MON DXG_min                      =   3.3634327493196E+03
(PID.TID 0000.0001) %MON DXG_mean                     =   3.7695610776573E+03
(PID.TID 0000.0001) %MON DXG_sd                       =   2.2119398199636E+02
(PID.TID 0000.0001) %MON DXV_max                      =   4.1327922661025E+03
(PID.TID 0000.0001) %MON DXV_min                      =   3.3634327493196E+03
(PID.TID 0000.0001) %MON DXV_mean                     =   3.7695610776573E+03
(PID.TID 0000.0001) %MON DXV_sd                       =   2.2119398199636E+02
(PID.TID 0000.0001) %MON YC_max                       =   4.3456317901611E+01
(PID.TID 0000.0001) %MON YC_min                       =   2.6872378349304E+01
(PID.TID 0000.0001) %MON YC_mean                      =   3.5275583727019E+01
(PID.TID 0000.0001) %MON YC_sd                        =   4.7474247172398E+00
(PID.TID 0000.0001) %MON YG_max                       =   4.3442249298096E+01
(PID.TID 0000.0001) %MON YG_min                       =   2.6855293273926E+01
(PID.TID 0000.0001) %MON YG_mean                      =   3.5259938400870E+01
(PID.TID 0000.0001) %MON YG_sd                        =   4.7482908185653E+00
(PID.TID 0000.0001) %MON DYC_max                      =   3.7984208896988E+03
(PID.TID 0000.0001) %MON DYC_min                      =   3.1290718017248E+03
(PID.TID 0000.0001) %MON DYC_mean                     =   3.4788279395744E+03
(PID.TID 0000.0001) %MON DYC_sd                       =   1.9225943821366E+02
(PID.TID 0000.0001) %MON DYF_max                      =   3.7989510252033E+03
(PID.TID 0000.0001) %MON DYF_min                      =   3.1282235849176E+03
(PID.TID 0000.0001) %MON DYF_mean                     =   3.4788156621358E+03
(PID.TID 0000.0001) %MON DYF_sd                       =   1.9277710102670E+02
(PID.TID 0000.0001) %MON DYG_max                      =   3.7989510252033E+03
(PID.TID 0000.0001) %MON DYG_min                      =   3.1282235849176E+03
(PID.TID 0000.0001) %MON DYG_mean                     =   3.4788156621358E+03
(PID.TID 0000.0001) %MON DYG_sd                       =   1.9277710102670E+02
(PID.TID 0000.0001) %MON DYU_max                      =   3.7984208896988E+03
(PID.TID 0000.0001) %MON DYU_min                      =   3.1290718017248E+03
(PID.TID 0000.0001) %MON DYU_mean                     =   3.4788279395744E+03
(PID.TID 0000.0001) %MON DYU_sd                       =   1.9225943821366E+02
(PID.TID 0000.0001) %MON RA_max                       =   1.5697903926271E+07
(PID.TID 0000.0001) %MON RA_min                       =   1.0519122521772E+07
(PID.TID 0000.0001) %MON RA_mean                      =   1.3153740588860E+07
(PID.TID 0000.0001) %MON RA_sd                        =   1.4919356433086E+06
(PID.TID 0000.0001) %MON RAW_max                      =   1.5697903926271E+07
(PID.TID 0000.0001) %MON RAW_min                      =   1.0519122521772E+07
(PID.TID 0000.0001) %MON RAW_mean                     =   1.3153740588860E+07
(PID.TID 0000.0001) %MON RAW_sd                       =   1.4919356433086E+06
(PID.TID 0000.0001) %MON RAS_max                      =   1.5693341326465E+07
(PID.TID 0000.0001) %MON RAS_min                      =   1.0524423130684E+07
(PID.TID 0000.0001) %MON RAS_mean                     =   1.3156063218928E+07
(PID.TID 0000.0001) %MON RAS_sd                       =   1.4887747834009E+06
(PID.TID 0000.0001) %MON RAZ_max                      =   1.5693341326465E+07
(PID.TID 0000.0001) %MON RAZ_min                      =   1.0524423130684E+07
(PID.TID 0000.0001) %MON RAZ_mean                     =   1.3156063218928E+07
(PID.TID 0000.0001) %MON RAZ_sd                       =   1.4887747834009E+06
(PID.TID 0000.0001) %MON AngleCS_max                  =   1.0000000000000E+00
(PID.TID 0000.0001) %MON AngleCS_min                  =   1.0000000000000E+00
(PID.TID 0000.0001) %MON AngleCS_mean                 =   1.0000000000000E+00
(PID.TID 0000.0001) %MON AngleCS_sd                   =   1.1102230246252E-16
(PID.TID 0000.0001) %MON AngleSN_max                  =   0.0000000000000E+00
(PID.TID 0000.0001) %MON AngleSN_min                  =   0.0000000000000E+00
(PID.TID 0000.0001) %MON AngleSN_mean                 =   0.0000000000000E+00
(PID.TID 0000.0001) %MON AngleSN_sd                   =   0.0000000000000E+00
(PID.TID 0000.0001)  MDS_READ_FIELD: opening global file: bathy.bin
(PID.TID 0000.0001) // =======================================================
(PID.TID 0000.0001) // Field Model R_low (ini_masks_etc)
(PID.TID 0000.0001) // CMIN =         -5.628649414062500E+03
(PID.TID 0000.0001) // CMAX =         -5.000000000000000E+00
(PID.TID 0000.0001) // CINT =          2.082833116319445E+02
(PID.TID 0000.0001) // SYMBOLS (CMIN->CMAX): -abcdefghijklmnopqrstuvwxyz+
(PID.TID 0000.0001) //                  0.0: .
(PID.TID 0000.0001) // RANGE I (Lo:Hi:Step):(    -3:   334:     1)
(PID.TID 0000.0001) // RANGE J (Lo:Hi:Step):(    32:    -3:    -1)
(PID.TID 0000.0001) // RANGE K (Lo:Hi:Step):(   1:   1:   1)
(PID.TID 0000.0001) // =======================================================
(PID.TID 0000.0001) K =   1
(PID.TID 0000.0001) //                I=6       I=16      I=26      I=36      I=38      I=48      I=58      I=68      I=70      I=80      I=90      I=100     I=102     I=112     I=122     I=132     I=134     I=144     I=154     I=164     I=166     I=176     I=186     I=196     I=198     I=208     I=218     I=228     I=230     I=240     I=250     I=260     I=262     I=272     I=282     I=292     I=294     I=304     I=314     I=324     I=334
(PID.TID 0000.0001) // |--J--|321012345|789012345|789012345|789012345|701234567|901234567|901234567|901234567|903456789|123456789|123456789|123456789|123678901|345678901|345678901|345678901|345690123|567890123|567890123|567890123|567892345|789012345|789012345|789012345|789012567|901234567|901234567|901234567|901234589|123456789|123456789|123456789|123456781|345678901|345678901|345678901|345678901|567890123|567890123|567890123|567890123|
(PID.TID 0000.0001) //     32 ..............................+++++++++++++++++++++zzzyyyyxwwwwxxxxxxxxxwwwwwwwwwwwwwwwwwwwwwvvvvvvvvvvvvvvvvvvvvvvvvuuuuuuvvuuuuuuuuuuvvvvuuvuuuusqhdcccccccccccccccccccccccccdcccccccccccccdcccccccddddddddddddddddddddeeeeeefffeeeeeeeeeeeeeeeeddddeeeedddddddddccccccccccccccccddccccccccccccccccccbbbbabbaaaaa---aaaaaaaaa---aaaaaa--aaaaaaaaaaaa--------------aa--aaaaaaabbaaaaaabbaaaabbbaaabbbbbaabcdccbcbddcbbbbc
(PID.TID 0000.0001) //     31 ...............................++++++++++++++++++++zzzyyyyxxwwwxxxxxxxxxxwwwwwwwwwwwwwwwwwwwwvvvvvvvvvvvvvvvvvvvvvvvuuuuuuuvuuuuuuuuuuuuvvvvvvuuustngdcccdcddddccccddddccccdddddcccccccccccccdcdcccccdddddddddddddddddddddeeeeffffeeeeeeeeeeeeeeeeddddeeeeddddddddddcccccccccccccccddddccccccccccccccccbbbbaaaaaaaaa--aaaaaaaaaa--a--aaa--a--aaaaaaaaa--------------a--aaaaaaaabaaaaaaabaaaabbbbaaaabbbbbabccccbbcdcbbbbbb
(PID.TID 0000.0001) //     30 ...............................++++++++++++++++++++zzzyyyyxxwwwxxxxxxxxxxxwwwwwwwwwwwwwwwwwwwvvvvvvvvvvvvvvvvvvvvvuuuuuuuuuuuuuuuuuuvvuuuuuuvvuuutpgedccdddddddccccddddccccddcccccccccccccccdddddccccdddddddddddddddddddddeeeffffffeeeeeeeeeeeeeeeddddeeeeddddddddddcccccccdccccccddddcccccccccccccccccbbbbaaaaaaaaa--aaaaaaaaaaaaa--aaaaaa--aaaaaaaaaa--------a----aa--aaaaaaaaaaaaaaaaaaaabbbbaaaabbbbbbbbbccbcedbbbbbbc
(PID.TID 0000.0001) //     29 ...............................++++++++++++++++++++zzzyyyyxxwwwxxxxxxxxxxxxwwwwwwwxwwwwwwwwwwwvvvvvvvvvvvvvvvvvvvuuuuuuuvvuuuuuuvvuuvvvuuuuuuvuuutojecccccccddddccccddddcccccccccccccccccccddddddddddddddddddddddddddddddeeeeefffffeeeeeeeeeeeeeeeddddeeeedddddddddccccccccdddddccddddcccccccccccccccccbbbbaaaaaaaa-----aaaaaaaaaaaa----aaaa----aaaaaaaaaaaa---a--aaaa-aaaaaaaaaaaaaaaaaaaabbbbbbaaabbbbbbbbbbbbdebbbbbbbc
(PID.TID 0000.0001) //     28 ................................+++++++++++++++++++zzzyyyyxxwwxxxxxxxxxxxxxxwwwwwwxxwwwwwwwwwwvvvvvvvvvvvvvvvvvvuuuuuuuuuvuuuuuuuvuuvvvvuuuuuvuuttolfcccccccddddccccddddcccccccccccccccdcccddddcddddddddddddddddddddddddeeeeeefffffeeeeeeeeeeeeeedddddeeeddddddddddccccccccddddddddddccccccccccccccccccbbbbaaaaaa-----aa----aaaaaaaa-a--aaaa-a----aaaaaaaaa------aaa---aaaaaaaaaaaaaaaaaababbbbbbabbbbbbbbbbbbbbcdbbbbbbcc
(PID.TID 0000.0001) //     27 ................................+++++++++++++++++++zzzyyyyxxxxxxxxxxxxxxxxxxxwwwwwxxxwwwwwwwwwvvvvvvvvvvvvvvvvvuuuuuuuuuuvvuuuuuuvvvvvvvuuuuvvuustqnhdccccccdddddcccdddddcccccdddcccccdcccccddddddddddddddddddddddddddedeeeeeefffffeeeeeeeeeeeeeedddddeeeddddddddccccccccdddddddddccccccccccccbcccccccbbbbbaaaaa----aaaaa-----aaaaaaaaa-aaaaaaa---aaaaaaaa----------a--aaaaabaaaaaaabaaaababbbbbbbbbbbbbbbbbbbbbbcbbbbbccc
(PID.TID 0000.0001) //     26 .................................++++++++++++++++++zzzyyyyxxxxxxxxxxxxxxxxxxxxwwwwxxxxwwwwwwwwwvvvvvvvvvvvvvvvvuuuuuuuuuuvvuuuuuuvvvvvvvuuuuuvuututpjdcccccccdddddddcdddddddcdddddccdddccdddddcccdddddddddddddddddddddedeeeeefffffeeeeeeeeeeeeeeddddddeedddddddccccccccddddddddddddcccccccccccbcccccccbbbbbaaaaa---aaaaaaa-----aaaaaaaa-aaaaaaa----aaaaaaa--aaa--------aaaaaaaabbaaaaaabbaaabbbbbbbbbbbbbbbbbbabbcbbbbcccc
(PID.TID 0000.0001) //     25 .................................++++++++++++++++++zzzyyyyxxxxxxxxxxyyyxxxxxxxxwwwxxxxxwwwwwwwwvvvvvvvvvvvvvvvuuuuuttuuuuvvttuuuuvvvvvvvuuuuuuuuuutrkdcbcccccdddddddcddddddddddddddddddcdddddddccddddddddddddddddddddddddeeeefffffeeeeeeeeeeeddedddddddedddddddccccccccdddddddddddccccccccccccbcccccccbbbbaaaaaa---aaaaaaa-------aaa-aa--aaa-aa------a--aa--aaa--------aaaaaaaaaaaaaaaaaaaaabbbbbbbbbbbbabbbbbbbbbbbbbcccc
(PID.TID 0000.0001) //     24 .................................++++++++++++++++++zzzyyyyxxxxxxxxxyyyyyyyxxxxxxwwxxxxxxwwwwwwwwvvvvvvvvvvvvuuuuuuuttuuuuvvttuuuuvvvvvvvuuuuuuuutttrlecbbccccdddddddcddddddddddddddddddcdddddddddddddddddddddddddddddddddeeeffffffeeeeeeeeeeedeeddddddeeddddddcccccccdcddddcdddddcccccccccccccbcccccccbbbbbaaaaaa-aaaaaaaaa------aa---aa-aa---aa-----a-aa-------------aaaaaaaaaaaaaaaaaaaaabbbbbbbbbbbbbbbbbbabbbbbbbbcccc
(PID.TID 0000.0001) //     23 ..................................+++++++.+++++++++zzzyyyyxxxxxxxxxyyyyyyyyyxxxxxwyyxxxxxwwwwwwwvvvvvvvvvvvuuuuuuuutttuuuvvtttuuuvvvvvuuuuuuuuuutttpjecbccccccddddddccddddddddddddddddddddddddddddddddddddddddddddddddddeeeeffffffeeeeeeeeedeeeddddddceddddddccccccccdcddddccddcccccccccccccccbcccccccbbbbaaaaaaaaaaaaaaaaa-------a----a--a----a-aaa-aaaa---------aaaaaaaaaaaaabbaaaaaabbbbabbbbbaabbbbbbbbbcbbbbbbbbbcccc
(PID.TID 0000.0001) //     22 ..................................+++++++.+++++++++zzzyyyyxxxxxxxxxyyyyyyyyyyyxxxxyyyyxxxxxwwwwwwvvvvvvvvvuuuuuuuuutttuuuvvtttuuuvvvvuuuuuvuuuuttsrlhdccccccccddddddccddddddddddddddddddddddddddddddddddddeeedddddeeedddeeeeffffffeeeeeeeedeeeedddddddedddddddcccccccccccccdccccccccccccccccccbcccccccbbbbaaaaaaaaaaaaaaaaaa-----aaa-----aaa----aaaa-aaaa---------a--aaaaabaabbbaabaabbbaababbbaaaaabbbbaaabbbbbbbbbbbbccc
(PID.TID 0000.0001) //     21 ..................................+++++++.+++++++++zzzyyyyxxxxxxxxxyyyyyyyyyyyyyxxyyyyyyxxxxwwwwwvvvvvvvvvuuuuuuuuuttttuuuvttttuuuvvvvuuuuuuuuutsqmheddcccccccddddddccddddddddddddddddddddddddddddddddddddeeedddddeeeddeeeefffffffeeeeeeeedeeeddddcccdddddcccddcccccccccccccccccccccccccccccccbcccccccbbbbaaaaaaaaaaaaaaaaaa-----aaaaa---aaaaa---aaa--aaa------------aaaaaabbbbbaaabbbbbabaabbbbaaaabbbbaabcbbabbbbbbbbccc
(PID.TID 0000.0001) //     20 ...................................++++++..++++++++zzzyyyyxxxxxxxxxyyyyzyyyyyyyyyyyyyyyyyyxxxwwwwwvvvvvvvvuuuuuuuuuttttuuuvttttuuuvvvvvuuuuuuuttrqlfeedddcccccddddddccddddddddddddddddddddddddcdddddddddddeeddddddeedddeeeeffgffffeeeeeedeeeeeddddcccdddddcccdcccccccccccccccccccccccccccccccbbccccccbbbbbaaaaaaaaaaaaaaaaaa----aaaaaa--aaaaaa--------aa--aa--------aaaaaaaabaaaaaaabaaaaaaabbbbaaabbbbaaadcbbbbbbbbcbcccc
(PID.TID 0000.0001) //     19 ..................................+++++++.+++++++++zzzyyyyxwwxxxxxxyyyzzzyyyyyyyyyyyyyyyyyyyxxxwwwwvvvvvvvuuvuuuuuttttttuuutttttuuuuvvvuuuuuuuutttqkgeeedcccdcdddddddcddddddddddddddddddddddddcdddddddddddddddddddddddeeeeeffgffffeeeeeeeeeeedddcccdccddcccdccccccccccccccccccccccccccccccccbbbcccccbbbbbbaaaaaaaaaaaaaaaaaa---aaaaaaa--aaaaaa--aa-----a-aaaa--aaaa--aaaaaaaaaaaaaaaaaaaabaabbbbaaabbbbaaabaabbbbbbbcccccc
(PID.TID 0000.0001) //     18 ..................................+++++++.+++++++++zzzyyyyxxwxxxxxxyyyzzzzzzzzzyyyzzzzzyyyyyyxxxxwwwvvvvvvvvvvuuttttttttuuutttttuuuvvvvvuutttuuttusphfeddccdcccdddddcccddddddddddddddddddddddddddddddddddddddddddddddeeeeeeffffffeeeeeeeeeeeddddccccccddcccccccccccccccccccccccccccccccccccbbbbccccbbbbbbbbaaaaaaaaaaaaaaaa----aaaaaaa-aaaaaaa-aaa--------aaaaaaaa---aaaaaaaaaaaaaaaaaaaabbbaabaaabbabbbbaaaabbbbbbbbccccc
(PID.TID 0000.0001) //     17 ...................................++++++..++++++++zzzyyyyxwwxxxxxxyyzzzzzzzzzzzzzzzzzzzzzyyyyyxxxxwwvvvvvvvvvvuuuuuttttuuuuttttuuuuuvvvvuuuuuuttutqjgeddccccccdddddcccdddddddddddddddddddddddddedddddddddeeddddddeedeeeeefffffffeeeeeeeeeeedddddcdcccdddcdcccccccccccccccccccccccccccccbccbbbbcbccbbbbbbbbbaaaaaaaaaaaaaaa---aaaaaaaa--aaaaaa----------a-a----aa---aaaaaababbbbbababbbbbbbaaaaaaabaaabbbaaabbbbbbbbbccccc
(PID.TID 0000.0001) //     16 ...................................++++++..++++++++zzzyyyxxwwwxxxxxyyz+++++++++++z+++++++zzzzyyyyxxxwwwvvvvvvvvvuuuuuttuuuuuuttuuuuuvuvvvuuuuuuttttqmifddcccccccddddccccdddddddddddddddddddddddeeeddddddddeeedddddeeeeeeefffffffeeeeeeeeeeeeddddddddccddddddccccccccccccccccccccccccccccbbbbbbbcbbbbbbbbbbbaaaaaaaaaaaaaaaa--aaaaaaaa---aaaaa---aa--a--------------aaaaaaabbabbbbabbabbbbbaaabaaaaaaaaabccaabbbbbbbbbbbccc
(PID.TID 0000.0001) //     15 ....................................+++++...+++++++zzzyyyxxxxxxxxxxyyz++++++++++++++++++++++zzzyyyyxxwwwwvwvvvvvvvuuuuuuuuuuuuuuuuuuuuuuuuuuuuuttttspkgedcccccccddddccccdddddddddddddddddddddddeeeeeddededeeedededeeeeeeeffffffeeeeeeeedeeeeddddddddccddddddccccccccccccccccccccccccccccbbbbbbbcbbbbbbbbbbbaaaaaaaaaaaaaaaa--aaaaaaa----aaaa------a------aa-------aaaaaaabaaaaaabbaaaaaabbbaaaaaaaaaaabbbcbbbbbbbbcbbbbbcc
(PID.TID 0000.0001) //     14 ....................................+++++...+++++++zzzyyyxxxwxxxxxxyyz+++++++++++++++++++++++++zzzyyxxxxwwwwvvvvvvvuuuuuuuuuuuuuuuuuuuuuuuuuuuttstssrlgedddcccccddddccccddddddddddddddddddddddeeeeeeeeeeeeeeeeeeeeeeeeeefffffffeeeeeeddddededdddddddccddddddccccccccccccccccccccccccccccbbbbbbbcbbbbbbbbbbbaaaaaaaaaaaaaaa----aaaaa-----aaa-------aa------aa------aaaaaaaabaaaaababaaaaabbbaaaaaaaaaaabbbbbbbbbbbbcbbbbbbc
(PID.TID 0000.0001) //     13 .....................................++++....++++++zzzyyyxxwwwxxxxxyyz+++++++++++++++++++++++++++zzzyyxxxxwwwwvvvvvuuuuuuuuuuuuuuuuuuuuuuuuutttssssspieddddccccccdddcccccdddddddddddddddddddddeeeeeeddeeeeeeedeeeeeeeeefffffffffeeeedddddeedddddddddccddddddcccccccccccccccccccccccccccbbbbbbbbbbbbbbbbbbbbaaaaaaaaaaaaaaa----aaa-------a----------a------------a--aaaaaaaaaaaabbaaaaaabbbaaaaaaaaaabaabbbbbbbbbbbcbbbbbbb
(PID.TID 0000.0001) //     12 .....................................++++....++++++zzzyyyyxwwwxxxxxyyz++++++++++++++++++++++++++..+zzzyyxxxxwwvvvvvvuuutttuvuuutttuuuuuuuuttsttssssqmfeedddcccccccddccccccdddddddddddddddedddeeeeeeeddeeeeeeedeeeeeeeeefgfffffffeeeeddddddedddddddddccddddddcccccccccccccccccccccccccccbbcbbbbbbbcbbbbbbbbbaaaaaaaaaaaaaaaa---aa-------------------a------------aaaaa-aaaaaaaabbbaaaaabbbaaaaaaaaabbaaaaabbbbbbbbbbbbbbbbb
(PID.TID 0000.0001) //     11 ......................................+++.....+++++zzzyyyyxxxwxxxxxyyz++++++++++++++++++++++++++...++zzyyyyxxwwvvvvvuuuttttvuuuttttuuuutttttsssrssrngeeeddccccccccddccccccdddddddddedddddedddeeeeeeedeeeeeeeeeeeeeeeeeffgfffffffeeeddddddeedddddddddccddddddcccccccccccccccccccccccccbbbbcbbbbbbbcbbbbbbbbaaaaaaaaaaaaaaaaaa--aa----------------------------aaa---aa--aaaaaaaaabbaaaaaabbbaaaaaaaabbabaaabbbbbbbbbbbbbccbb
(PID.TID 0000.0001) //     10 ......................................+++.....+++++zzzyyyyxwwwwxxxxxyzz+++++++++++++++++++++++++....+++zzyyyyxwwwvvvvuutsssvvuutssstttttsrssssrrssqifeeedccccccdddddcccddddddddddddeeddddddddeeeeeeeeeeeeeeeeeeeeeeeeeffgfffffffeeeeddddeeeeddddddddccddddddcccccccccccccccccccccccccbbbbbbbbbbbbbbbbbbbbbaaaaaaaaaaaaaaaaaaaaaaa-------a------------------a------aa--aaaaaaaaabbaaaaaabbaaaaaaaaabaabaabbbbbbbbbbbbbbcbbb
(PID.TID 0000.0001) //      9 .......................................++......++++zzzyyyyxxwwwxxxxxyzz++++++++++++++++++++++++++.....+++zzzyyyxwwwvvvuusrrvvvuusrrrsssrqqrrrrsssrjffeddccccccddddddccdddddddddddddeeeeddddddeeeeeeeeeeeeeeeeeeeeeeeeefgggffffffeeeeeeeeeeeedddddddddcdddddddccccccccccbcccccccccccccbbbbbbbbbbbbbbbbbbbbaaaaaaaaaaaaaaaaaaaaaaa----------------------aaaa-------aa-aaaaaabaaaaababaaaaabbaaaaaaaaaaabbbbbbbbbbbbbbbbbcbbb
(PID.TID 0000.0001) //      8 .......................................++......++++zzzyyyyxxwwwxxxxxyzz+++++++++++++++++++++++++........+++zzzzyyxxwvvvutsrwvvvutsrrrrrrqrrqpqrqpnigfeddccccdddddddddddddddddddddddeeeeddeeeeeeeeeddeeeeeeeeeeeeeeeeeefgggffffeeeeeeeeeeeeedddddddddccddddddccccccccccbbcccccccccccccbbbbbbbbbbbbbbbbbbbaaaaaaaaaaaaaaaaaaaaaaaaa-------a-------aaaaaa-a---------a--aaaaaabaaabbbabaaabbbbaaaaaaaaaaabbbbbbbbbbbbbbbbbbbbb
(PID.TID 0000.0001) //      7 .......................................++......++++zzzyyyyxxwwwxxxxxyzz+++++++++++++++++++++++++..........++++zzzyyxwvvuuttxwvvuuttssrrssssqponoprhgfeddcccddddddddddddddddddddddddeeeeeeeeeeeeeeeddeeeeeeeeeeeeeeeeeffgggffffffeeeeeeeeeeeedddddddddcdddddddcccccccccbbcccccccccccccbbbbbbbbbbbbbbbbbbbaaaaaaaaaaaaaaaaaaaaaaaaaa--aaaaaa--aaaaa---------------aa---aaaaabbaabbbabbaabbbaaaaaaaaaaaaabbbbbbbbbbbbbbbbbbbb
(PID.TID 0000.0001) //      6 ........................................+.......+++zzzyyyyxxwwwxxxxxyzz++++++++++++++++++++++++...............+++zzyxxwvtuuyxxwvtuuuutstuttrpmjjkkgfedccccddedddddddedddddddddddddddeeeeeeeeeeeeeedddeeeeeeffeeeeeefffffffffffffeeeeeeeeeeeedddddddddcdddddddccccccccbbccccccccccccccbbbbbbbbbbbbbbbbbbbbaaaaaaaaaaaaaaaaaaaaaaaaaaa----aaaa---------a----------a-a--aaaaabaaaaaaabaaaaaaaaaaaaaaaaaaabbbbbbbbbbbccbbbaaab
(PID.TID 0000.0001) //      5 ........................................+.......+++zzzyyyxxxwwwxxxxxxyzzz+++++++++++++++++++++...................++zzyxwuuvzzyxwuuvuuttuuvvurojhgfeddcccccdddddddddddddddddddddddddddeeeeeeeeeeeeeeeeeeeeefffeeeeefffffffffffffffeeeeeeeeeeeddddddddccddddddcccccccccbbcccbbbbccccbbbbbbbbbbbbbbbbbbbbbbbbbaaaaaaaaaaaaaaaaaaaaaaaaa----aaaa------------aa------a-a-aaaaabaaaaaaabaaaaaaaaaaa-aaabaaaabbbbbbbbbbbcbbbaaaab
(PID.TID 0000.0001) //      4 ........................................+.......+++zzzyyyxxxwwwxxxxxxyzzzz++++++++++++++++++........................+zyxwvv.+zyxwvvuuuuuvvvutsonlhgeccccccdddddddddddddddddddddddddddeeeeeeeeeeeeeeeeeeeeefffeeeeeffffffffffffffffeeeeeeeeeddddddddddcdddddddccccccccbccccbbbbbcccbbbbbbbbbbbbbbbbbbbbbbbbaaaaaaaaaaaaaaaaaaaaa--aaa-----aaa-------------aa----a---aaaaaaaaaaaaaaaaaaaaaaaaaaaaabbaaaabbbbaabbbbbbbbbaaaaa
(PID.TID 0000.0001) //      3 ........................................+.......+++zzzyyyxxxwwwxxxxxxyyzzz+++++++++++++++++..........................+zyxwu..+zyxwuuuuuuvvvvuusstpnhddccccddddddddddddddddddddddeedddeeeeeeeeeeeeeeeeeeedefffeeedeffffefffffffffffeeeeeeeeeddddddddddcdddddddcccccccccccccbbbbbbccbbbbbbbbbbbbbbbbbbbbbbbbaaaaaaaaaaaaaaaaaaaa---aa------aa---------------aa-------aaaaaaaaaaaaaaaaaaaaaaaaaaaaabbaaaabbbbaaabbbbbbbaaaaaa
(PID.TID 0000.0001) //      2 ........................................+.......+++zzzyyyxxxxwwxxxxxxyyzzz++++++++++++++++............................+zyxw...+zyxwvvvvvvvvvuuttttrkeddccddddddddddddddddddddeeeeeddeeeeeeeeeeeeeeeeeeeeeeeffeeeeeeffeffffffffffffeeeeeeeeeddddddddddcdddddddccccccccccccbbbbcbbbbcbbbbbbbbbbbbbbbbbbbbbaaaaaaaaaaaaaaaa----a----a-------a-----------------a------aaaaaaaaaaaaaaaaaaaaaaaaaaaaabbaaaaabbbbbbbbbbbbbaaaaaaa
(PID.TID 0000.0001) //      1 ..........................................................................................................................................................................................................................................................................................................................................................................................................................
(PID.TID 0000.0001) //      0 ..........................................................................................................................................................................................................................................................................................................................................................................................................................
(PID.TID 0000.0001) //     -1 .................................................................................................................................................................................................................................................................................................................................................+++++++zzzzzzzzzzzzzzzzzzzzzzzzzzzzzzzzzzzz++zzz+zzzzzzzzzzzzzzzzzzzzzzzz
(PID.TID 0000.0001) //     -2 ................................................................................................................................................................................................................................................................................................................................................+++++++zzzzzzzzzzzzzzzzzzzzzzzzzzzzzzzzzzzzzzz+++zzzzzzzzzzzzzzzzzzzzzzzzz
(PID.TID 0000.0001) //     -3 ................................................................................................................................................................................................................................................................................................................................................+++++++zzzzzzzzzzzzzzzzzzzzzzzzzzzzzzzzzzzzzzz+++zzzzzzzzzzzzzzzzzzzzzzzzz
(PID.TID 0000.0001) // =======================================================
(PID.TID 0000.0001) // END OF FIELD                                          =
(PID.TID 0000.0001) // =======================================================
(PID.TID 0000.0001) 
(PID.TID 0000.0001) // =======================================================
(PID.TID 0000.0001) // Field Model Ro_surf (ini_masks_etc)
(PID.TID 0000.0001) // CMIN =          1.000000000000000E+32
(PID.TID 0000.0001) // CMAX =         -1.000000000000000E+32
(PID.TID 0000.0001) // CINT =          0.000000000000000E+00
(PID.TID 0000.0001) // SYMBOLS (CMIN->CMAX): -abcdefghijklmnopqrstuvwxyz+
(PID.TID 0000.0001) //                  0.0: .
(PID.TID 0000.0001) // RANGE I (Lo:Hi:Step):(    -3:   334:     1)
(PID.TID 0000.0001) // RANGE J (Lo:Hi:Step):(    32:    -3:    -1)
(PID.TID 0000.0001) // RANGE K (Lo:Hi:Step):(   1:   1:   1)
(PID.TID 0000.0001) // =======================================================
(PID.TID 0000.0001) // =======================================================
(PID.TID 0000.0001) // END OF FIELD                                          =
(PID.TID 0000.0001) // =======================================================
(PID.TID 0000.0001) 
(PID.TID 0000.0001) // =======================================================
(PID.TID 0000.0001) // Field hFacC at iteration          0
(PID.TID 0000.0001) // CMIN =          1.000000000000000E+00
(PID.TID 0000.0001) // CMAX =          1.000000000000000E+00
(PID.TID 0000.0001) // CINT =          0.000000000000000E+00
(PID.TID 0000.0001) // SYMBOLS (CMIN->CMAX): -abcdefghijklmnopqrstuvwxyz+
(PID.TID 0000.0001) //                  0.0: .
(PID.TID 0000.0001) // RANGE I (Lo:Hi:Step):(    -3:   334:     1)
(PID.TID 0000.0001) // RANGE J (Lo:Hi:Step):(    32:    -3:    -1)
(PID.TID 0000.0001) // RANGE K (Lo:Hi:Step):(   1:   1:   1)
(PID.TID 0000.0001) // =======================================================
(PID.TID 0000.0001) // =======================================================
(PID.TID 0000.0001) // END OF FIELD                                          =
(PID.TID 0000.0001) // =======================================================
(PID.TID 0000.0001) 
(PID.TID 0000.0001) // =======================================================
(PID.TID 0000.0001) // Field hFacW at iteration          0
(PID.TID 0000.0001) // CMIN =          1.000000000000000E+00
(PID.TID 0000.0001) // CMAX =          1.000000000000000E+00
(PID.TID 0000.0001) // CINT =          0.000000000000000E+00
(PID.TID 0000.0001) // SYMBOLS (CMIN->CMAX): -abcdefghijklmnopqrstuvwxyz+
(PID.TID 0000.0001) //                  0.0: .
(PID.TID 0000.0001) // RANGE I (Lo:Hi:Step):(    -3:   334:     1)
(PID.TID 0000.0001) // RANGE J (Lo:Hi:Step):(    32:    -3:    -1)
(PID.TID 0000.0001) // RANGE K (Lo:Hi:Step):(   1:   1:   1)
(PID.TID 0000.0001) // =======================================================
(PID.TID 0000.0001) // =======================================================
(PID.TID 0000.0001) // END OF FIELD                                          =
(PID.TID 0000.0001) // =======================================================
(PID.TID 0000.0001) 
(PID.TID 0000.0001) // =======================================================
(PID.TID 0000.0001) // Field hFacS at iteration          0
(PID.TID 0000.0001) // CMIN =          1.000000000000000E+00
(PID.TID 0000.0001) // CMAX =          1.000000000000000E+00
(PID.TID 0000.0001) // CINT =          0.000000000000000E+00
(PID.TID 0000.0001) // SYMBOLS (CMIN->CMAX): -abcdefghijklmnopqrstuvwxyz+
(PID.TID 0000.0001) //                  0.0: .
(PID.TID 0000.0001) // RANGE I (Lo:Hi:Step):(    -3:   334:     1)
(PID.TID 0000.0001) // RANGE J (Lo:Hi:Step):(    32:    -3:    -1)
(PID.TID 0000.0001) // RANGE K (Lo:Hi:Step):(   1:   1:   1)
(PID.TID 0000.0001) // =======================================================
(PID.TID 0000.0001) // =======================================================
(PID.TID 0000.0001) // END OF FIELD                                          =
(PID.TID 0000.0001) // =======================================================
(PID.TID 0000.0001) 
(PID.TID 0000.0001) 
(PID.TID 0000.0001) // =======================================================
(PID.TID 0000.0001) // Calendar configuration >>> START <<<
(PID.TID 0000.0001) // =======================================================
(PID.TID 0000.0001) 
(PID.TID 0000.0001) modelstart = /* Start time of the model integration [s] */
(PID.TID 0000.0001)                 0.000000000000000E+00
(PID.TID 0000.0001)     ;
(PID.TID 0000.0001) modelend  = /* End time of the model integration [s] */
(PID.TID 0000.0001)                 3.600000000000000E+03
(PID.TID 0000.0001)     ;
(PID.TID 0000.0001) modelStep = /* Time interval for a model forward step [s] */
(PID.TID 0000.0001)                 2.400000000000000E+02
(PID.TID 0000.0001)     ;
(PID.TID 0000.0001) usingGregorianCalendar= /* Calendar Type: Gregorian Calendar */
(PID.TID 0000.0001)                   T
(PID.TID 0000.0001)     ;
(PID.TID 0000.0001) usingJulianCalendar = /* Calendar Type: Julian Calendar */
(PID.TID 0000.0001)                   F
(PID.TID 0000.0001)     ;
(PID.TID 0000.0001) usingNoLeapYearCal  = /* Calendar Type: without Leap Year */
(PID.TID 0000.0001)                   F
(PID.TID 0000.0001)     ;
(PID.TID 0000.0001) usingModelCalendar  = /* Calendar Type: Model Calendar */
(PID.TID 0000.0001)                   F
(PID.TID 0000.0001)     ;
(PID.TID 0000.0001) modelStartDate YYYYMMDD = /* Model start date YYYY-MM-DD */
(PID.TID 0000.0001)                20080101
(PID.TID 0000.0001)     ;
(PID.TID 0000.0001)   modelStartDate HHMMSS = /* Model start date HH-MM-SS  */
(PID.TID 0000.0001)                       0
(PID.TID 0000.0001)     ;
(PID.TID 0000.0001) modelEndDate   YYYYMMDD = /* Model end date YYYY-MM-DD */
(PID.TID 0000.0001)                20080101
(PID.TID 0000.0001)     ;
(PID.TID 0000.0001)   modelEndDate   HHMMSS = /* Model end date HH-MM-SS  */
(PID.TID 0000.0001)                   10000
(PID.TID 0000.0001)     ;
(PID.TID 0000.0001) intyears = /* Number of calendar years affected by the integration */
(PID.TID 0000.0001)                       1
(PID.TID 0000.0001)     ;
(PID.TID 0000.0001) intmonths= /* Number of calendar months affected by the integration */
(PID.TID 0000.0001)                       1
(PID.TID 0000.0001)     ;
(PID.TID 0000.0001) intdays = /* Number of calendar days affected by the integration */
(PID.TID 0000.0001)                       1
(PID.TID 0000.0001)     ;
(PID.TID 0000.0001) modelIter0 = /* Base timestep number  */
(PID.TID 0000.0001)                       0
(PID.TID 0000.0001)     ;
(PID.TID 0000.0001) modelIterEnd = /* Final timestep number  */
(PID.TID 0000.0001)                      15
(PID.TID 0000.0001)     ;
(PID.TID 0000.0001) modelIntSteps= /* Number of model timesteps  */
(PID.TID 0000.0001)                      15
(PID.TID 0000.0001)     ;
(PID.TID 0000.0001) 
(PID.TID 0000.0001) // =======================================================
(PID.TID 0000.0001) // Calendar configuration  >>> END <<<
(PID.TID 0000.0001) // =======================================================
(PID.TID 0000.0001) 
(PID.TID 0000.0001) GAD_INIT_FIXED: GAD_OlMinSize=  4  0  1
(PID.TID 0000.0001) 
(PID.TID 0000.0001) // ===================================
(PID.TID 0000.0001) // GAD parameters :
(PID.TID 0000.0001) // ===================================
(PID.TID 0000.0001) tempAdvScheme =   /* Temp. Horiz.Advection scheme selector */
(PID.TID 0000.0001)                       7
(PID.TID 0000.0001)     ;
(PID.TID 0000.0001) tempVertAdvScheme =   /* Temp. Vert. Advection scheme selector */
(PID.TID 0000.0001)                       7
(PID.TID 0000.0001)     ;
(PID.TID 0000.0001) tempMultiDimAdvec =   /* use Muti-Dim Advec method for Temp */
(PID.TID 0000.0001)                   T
(PID.TID 0000.0001)     ;
(PID.TID 0000.0001) tempSOM_Advection = /* use 2nd Order Moment Advection for Temp */
(PID.TID 0000.0001)                   F
(PID.TID 0000.0001)     ;
(PID.TID 0000.0001) AdamsBashforthGt = /* apply Adams-Bashforth extrapolation on Gt */
(PID.TID 0000.0001)                   F
(PID.TID 0000.0001)     ;
(PID.TID 0000.0001) AdamsBashforth_T = /* apply Adams-Bashforth extrapolation on Temp */
(PID.TID 0000.0001)                   F
(PID.TID 0000.0001)     ;
(PID.TID 0000.0001) saltAdvScheme =   /* Salt. Horiz.advection scheme selector */
(PID.TID 0000.0001)                       7
(PID.TID 0000.0001)     ;
(PID.TID 0000.0001) saltVertAdvScheme =   /* Salt. Vert. Advection scheme selector */
(PID.TID 0000.0001)                       7
(PID.TID 0000.0001)     ;
(PID.TID 0000.0001) saltMultiDimAdvec =   /* use Muti-Dim Advec method for Salt */
(PID.TID 0000.0001)                   T
(PID.TID 0000.0001)     ;
(PID.TID 0000.0001) saltSOM_Advection = /* use 2nd Order Moment Advection for Salt */
(PID.TID 0000.0001)                   F
(PID.TID 0000.0001)     ;
(PID.TID 0000.0001) AdamsBashforthGs = /* apply Adams-Bashforth extrapolation on Gs */
(PID.TID 0000.0001)                   F
(PID.TID 0000.0001)     ;
(PID.TID 0000.0001) AdamsBashforth_S = /* apply Adams-Bashforth extrapolation on Salt */
(PID.TID 0000.0001)                   F
(PID.TID 0000.0001)     ;
(PID.TID 0000.0001) // ===================================
(PID.TID 0000.0001) OBCS_INIT_FIXED: Setting OB indices in Overlap
(PID.TID 0000.0001)  Sets OBS(i,bi,bj=   37,  1,  1)=    2
(PID.TID 0000.0001)  Sets OBS(i,bi,bj=   34,  2,  1)=    2
(PID.TID 0000.0001)  Sets OBS(i,bi,bj=   35,  2,  1)=    2
(PID.TID 0000.0001)  Sets OBS(i,bi,bj=   36,  2,  1)=    2
(PID.TID 0000.0001)  Sets OBS(i,bi,bj=   37,  2,  1)=    2
(PID.TID 0000.0001)  Sets OBS(i,bi,bj=   -3,  3,  1)=    2
(PID.TID 0000.0001)  Sets OBS(i,bi,bj=   -2,  3,  1)=    2
(PID.TID 0000.0001)  Sets OBS(i,bi,bj=   -1,  3,  1)=    2
(PID.TID 0000.0001)  Sets OBS(i,bi,bj=    0,  3,  1)=    2
(PID.TID 0000.0001)  Sets OBS(i,bi,bj=   34,  3,  1)=    2
(PID.TID 0000.0001)  Sets OBS(i,bi,bj=   35,  3,  1)=    2
(PID.TID 0000.0001)  Sets OBS(i,bi,bj=   36,  3,  1)=    2
(PID.TID 0000.0001)  Sets OBS(i,bi,bj=   37,  3,  1)=    2
(PID.TID 0000.0001)  Sets OBS(i,bi,bj=    0,  4,  1)=    2
(PID.TID 0000.0001)  Sets OBS(i,bi,bj=   34,  4,  1)=    2
(PID.TID 0000.0001)  Sets OBS(i,bi,bj=   35,  4,  1)=    2
(PID.TID 0000.0001)  Sets OBS(i,bi,bj=   36,  4,  1)=    2
(PID.TID 0000.0001)  Sets OBS(i,bi,bj=   37,  4,  1)=    2
(PID.TID 0000.0001)  Sets OBS(i,bi,bj=   -3,  5,  1)=    2
(PID.TID 0000.0001)  Sets OBS(i,bi,bj=   -2,  5,  1)=    2
(PID.TID 0000.0001)  Sets OBS(i,bi,bj=   -1,  5,  1)=    2
(PID.TID 0000.0001)  Sets OBS(i,bi,bj=    0,  5,  1)=    2
(PID.TID 0000.0001)  Sets OBS(i,bi,bj=   34,  5,  1)=    2
(PID.TID 0000.0001)  Sets OBS(i,bi,bj=   35,  5,  1)=    2
(PID.TID 0000.0001)  Sets OBS(i,bi,bj=   36,  5,  1)=    2
(PID.TID 0000.0001)  Sets OBS(i,bi,bj=   37,  5,  1)=    2
(PID.TID 0000.0001)  Sets OBS(i,bi,bj=   -3,  6,  1)=    2
(PID.TID 0000.0001)  Sets OBS(i,bi,bj=   -2,  6,  1)=    2
(PID.TID 0000.0001)  Sets OBS(i,bi,bj=   -1,  6,  1)=    2
(PID.TID 0000.0001)  Sets OBS(i,bi,bj=    0,  6,  1)=    2
(PID.TID 0000.0001)  Sets OBS(i,bi,bj=   34,  6,  1)=    2
(PID.TID 0000.0001)  Sets OBS(i,bi,bj=   35,  6,  1)=    2
(PID.TID 0000.0001)  Sets OBS(i,bi,bj=   36,  6,  1)=    2
(PID.TID 0000.0001)  Sets OBS(i,bi,bj=   37,  6,  1)=    2
(PID.TID 0000.0001)  Sets OBS(i,bi,bj=   -3,  7,  1)=    2
(PID.TID 0000.0001)  Sets OBS(i,bi,bj=   -2,  7,  1)=    2
(PID.TID 0000.0001)  Sets OBS(i,bi,bj=   -1,  7,  1)=    2
(PID.TID 0000.0001)  Sets OBS(i,bi,bj=    0,  7,  1)=    2
(PID.TID 0000.0001)  Sets OBS(i,bi,bj=   34,  7,  1)=    2
(PID.TID 0000.0001)  Sets OBS(i,bi,bj=   35,  7,  1)=    2
(PID.TID 0000.0001)  Sets OBS(i,bi,bj=   36,  7,  1)=    2
(PID.TID 0000.0001)  Sets OBS(i,bi,bj=   37,  7,  1)=    2
(PID.TID 0000.0001)  Sets OBS(i,bi,bj=   -3,  8,  1)=    2
(PID.TID 0000.0001)  Sets OBS(i,bi,bj=   -2,  8,  1)=    2
(PID.TID 0000.0001)  Sets OBS(i,bi,bj=   -1,  8,  1)=    2
(PID.TID 0000.0001)  Sets OBS(i,bi,bj=    0,  8,  1)=    2
(PID.TID 0000.0001)  Sets OBS(i,bi,bj=   34,  8,  1)=    2
(PID.TID 0000.0001)  Sets OBS(i,bi,bj=   35,  8,  1)=    2
(PID.TID 0000.0001)  Sets OBS(i,bi,bj=   36,  8,  1)=    2
(PID.TID 0000.0001)  Sets OBS(i,bi,bj=   37,  8,  1)=    2
(PID.TID 0000.0001)  Sets OBS(i,bi,bj=   -3,  9,  1)=    2
(PID.TID 0000.0001)  Sets OBS(i,bi,bj=   -2,  9,  1)=    2
(PID.TID 0000.0001)  Sets OBS(i,bi,bj=   -1,  9,  1)=    2
(PID.TID 0000.0001)  Sets OBS(i,bi,bj=    0,  9,  1)=    2
(PID.TID 0000.0001)  Sets OBS(i,bi,bj=   34,  9,  1)=    2
(PID.TID 0000.0001)  Sets OBS(i,bi,bj=   35,  9,  1)=    2
(PID.TID 0000.0001)  Sets OBS(i,bi,bj=   36,  9,  1)=    2
(PID.TID 0000.0001)  Sets OBS(i,bi,bj=   37,  9,  1)=    2
(PID.TID 0000.0001)  Sets OBS(i,bi,bj=   -3, 10,  1)=    2
(PID.TID 0000.0001)  Sets OBS(i,bi,bj=   -2, 10,  1)=    2
(PID.TID 0000.0001)  Sets OBS(i,bi,bj=   -1, 10,  1)=    2
(PID.TID 0000.0001)  Sets OBS(i,bi,bj=    0, 10,  1)=    2
(PID.TID 0000.0001)  Sets OBS(i,bi,bj=   34, 10,  1)=    2
(PID.TID 0000.0001)  Sets OBS(i,bi,bj=   35, 10,  1)=    2
(PID.TID 0000.0001)  Sets OBS(i,bi,bj=   36, 10,  1)=    2
(PID.TID 0000.0001)  Sets OBS(i,bi,bj=   37, 10,  1)=    2
(PID.TID 0000.0001) OBCS_INIT_FIXED: Setting OB indices in Overlap <= done
(PID.TID 0000.0001) 
(PID.TID 0000.0001) // =======================================================
(PID.TID 0000.0001) // External forcing (EXF) configuration >>> START <<<
(PID.TID 0000.0001) // =======================================================
(PID.TID 0000.0001) 
(PID.TID 0000.0001)  EXF general parameters:
(PID.TID 0000.0001) 
(PID.TID 0000.0001) exf_iprec = /* exf file precision */
(PID.TID 0000.0001)                      32
(PID.TID 0000.0001)     ;
(PID.TID 0000.0001) useExfYearlyFields = /* add extension _YEAR to input file names */
(PID.TID 0000.0001)                   T
(PID.TID 0000.0001)     ;
(PID.TID 0000.0001) twoDigitYear = /* use 2-digit year extension */
(PID.TID 0000.0001)                   F
(PID.TID 0000.0001)     ;
(PID.TID 0000.0001) useExfCheckRange = /* check for fields range */
(PID.TID 0000.0001)                   F
(PID.TID 0000.0001)     ;
(PID.TID 0000.0001) exf_output_interp = /* output directly interpolation result */
(PID.TID 0000.0001)                   F
(PID.TID 0000.0001)     ;
(PID.TID 0000.0001) exf_debugLev = /* select EXF-debug printing level */
(PID.TID 0000.0001)                       2
(PID.TID 0000.0001)     ;
(PID.TID 0000.0001) exf_monFreq  = /* EXF monitor frequency [ s ] */
(PID.TID 0000.0001)                 2.400000000000000E+02
(PID.TID 0000.0001)     ;
(PID.TID 0000.0001) repeatPeriod = /* period for cycling forcing dataset [ s ] */
(PID.TID 0000.0001)                 0.000000000000000E+00
(PID.TID 0000.0001)     ;
(PID.TID 0000.0001) climTempFreeze= /* Minimum climatological temperature [deg.C] */
(PID.TID 0000.0001)                -1.900000000000000E+00
(PID.TID 0000.0001)     ;
(PID.TID 0000.0001) windStressMax = /* Maximum absolute windstress [ Pa ] */
(PID.TID 0000.0001)                 2.000000000000000E+00
(PID.TID 0000.0001)     ;
(PID.TID 0000.0001) stressIsOnCgrid = /* set u,v_stress on Arakawa C-grid */
(PID.TID 0000.0001)                   F
(PID.TID 0000.0001)     ;
(PID.TID 0000.0001) rotateStressOnAgrid = /* rotate u,v_stress on Arakawa A-grid */
(PID.TID 0000.0001)                   F
(PID.TID 0000.0001)     ;
(PID.TID 0000.0001) cen2kel = /* conversion of deg. Centigrade to Kelvin [K] */
(PID.TID 0000.0001)                 2.731500000000000E+02
(PID.TID 0000.0001)     ;
(PID.TID 0000.0001) gravity_mks= /* gravitational acceleration [m/s^2] */
(PID.TID 0000.0001)                 9.810000000000000E+00
(PID.TID 0000.0001)     ;
(PID.TID 0000.0001) atmrho =  /* mean atmospheric density [kg/m^3] */
(PID.TID 0000.0001)                 1.200000000000000E+00
(PID.TID 0000.0001)     ;
(PID.TID 0000.0001) atmcp =  /* mean atmospheric specific heat [J/kg/K] */
(PID.TID 0000.0001)                 1.005000000000000E+03
(PID.TID 0000.0001)     ;
(PID.TID 0000.0001) flamb =  /* latent heat of evaporation [J/kg] */
(PID.TID 0000.0001)                 2.500000000000000E+06
(PID.TID 0000.0001)     ;
(PID.TID 0000.0001) flami =  /* latent heat of pure-ice melting [J/kg] */
(PID.TID 0000.0001)                 3.340000000000000E+05
(PID.TID 0000.0001)     ;
(PID.TID 0000.0001) cvapor_fac = /* const. for Saturation calculation [?] */
(PID.TID 0000.0001)                 6.403800000000000E+05
(PID.TID 0000.0001)     ;
(PID.TID 0000.0001) cvapor_exp = /* const. for Saturation calculation [?] */
(PID.TID 0000.0001)                 5.107400000000000E+03
(PID.TID 0000.0001)     ;
(PID.TID 0000.0001) cvapor_fac_ice= /* const. for Saturation calculation [?] */
(PID.TID 0000.0001)                 1.163780000000000E+07
(PID.TID 0000.0001)     ;
(PID.TID 0000.0001) cvapor_exp_ice= /* const. for Saturation calculation [?] */
(PID.TID 0000.0001)                 5.897800000000000E+03
(PID.TID 0000.0001)     ;
(PID.TID 0000.0001) humid_fac = /* humidity coef. in virtual temp. [(kg/kg)^-1] */
(PID.TID 0000.0001)                 6.060000000000000E-01
(PID.TID 0000.0001)     ;
(PID.TID 0000.0001) gamma_blk = /* adiabatic lapse rate [?] */
(PID.TID 0000.0001)                 1.000000000000000E-02
(PID.TID 0000.0001)     ;
(PID.TID 0000.0001) saltsat = /* reduction of Qsat over salty water [-] */
(PID.TID 0000.0001)                 9.800000000000000E-01
(PID.TID 0000.0001)     ;
(PID.TID 0000.0001) noNegativeEvap = /* prevent negative Evaporation */
(PID.TID 0000.0001)                   F
(PID.TID 0000.0001)     ;
(PID.TID 0000.0001) sstExtrapol = /* extrapolation coeff from lev. 1 & 2 to surf [-] */
(PID.TID 0000.0001)                 0.000000000000000E+00
(PID.TID 0000.0001)     ;
(PID.TID 0000.0001) cDrag_1 = /* coef used in drag calculation [?] */
(PID.TID 0000.0001)                 2.700000000000000E-03
(PID.TID 0000.0001)     ;
(PID.TID 0000.0001) cDrag_2 = /* coef used in drag calculation [?] */
(PID.TID 0000.0001)                 1.420000000000000E-04
(PID.TID 0000.0001)     ;
(PID.TID 0000.0001) cDrag_3 = /* coef used in drag calculation [?] */
(PID.TID 0000.0001)                 7.640000000000000E-05
(PID.TID 0000.0001)     ;
(PID.TID 0000.0001) cStanton_1 = /* coef used in Stanton number calculation [?] */
(PID.TID 0000.0001)                 3.270000000000000E-02
(PID.TID 0000.0001)     ;
(PID.TID 0000.0001) cStanton_2 = /* coef used in Stanton number calculation [?] */
(PID.TID 0000.0001)                 1.800000000000000E-02
(PID.TID 0000.0001)     ;
(PID.TID 0000.0001) cDalton = /* coef used in Dalton number calculation [?] */
(PID.TID 0000.0001)                 3.460000000000000E-02
(PID.TID 0000.0001)     ;
(PID.TID 0000.0001) exf_scal_BulkCdn= /* Drag coefficient scaling factor [-] */
(PID.TID 0000.0001)                 1.000000000000000E+00
(PID.TID 0000.0001)     ;
(PID.TID 0000.0001) zolmin = /* minimum stability parameter [?] */
(PID.TID 0000.0001)                -1.000000000000000E+02
(PID.TID 0000.0001)     ;
(PID.TID 0000.0001) psim_fac = /* coef used in turbulent fluxes calculation [-] */
(PID.TID 0000.0001)                 5.000000000000000E+00
(PID.TID 0000.0001)     ;
(PID.TID 0000.0001) zref =  /* reference height [ m ] */
(PID.TID 0000.0001)                 1.000000000000000E+01
(PID.TID 0000.0001)     ;
(PID.TID 0000.0001) hu =  /* height of mean wind [ m ] */
(PID.TID 0000.0001)                 1.000000000000000E+01
(PID.TID 0000.0001)     ;
(PID.TID 0000.0001) ht =  /* height of mean temperature [ m ] */
(PID.TID 0000.0001)                 2.000000000000000E+00
(PID.TID 0000.0001)     ;
(PID.TID 0000.0001) hq =  /* height of mean spec.humidity [ m ] */
(PID.TID 0000.0001)                 2.000000000000000E+00
(PID.TID 0000.0001)     ;
(PID.TID 0000.0001) uMin = /* minimum wind speed [m/s] */
(PID.TID 0000.0001)                 5.000000000000000E-01
(PID.TID 0000.0001)     ;
(PID.TID 0000.0001) useStabilityFct_overIce= /* transfert Coeffs over sea-ice depend on stability */
(PID.TID 0000.0001)                   F
(PID.TID 0000.0001)     ;
(PID.TID 0000.0001) exf_iceCd = /* drag coefficient over sea-ice (fixed) [-] */
(PID.TID 0000.0001)                 1.630000000000000E-03
(PID.TID 0000.0001)     ;
(PID.TID 0000.0001) exf_iceCe = /* transfert coeff. over sea-ice, for Evap (fixed) [-] */
(PID.TID 0000.0001)                 1.630000000000000E-03
(PID.TID 0000.0001)     ;
(PID.TID 0000.0001) exf_iceCh = /* transfert coeff. over sea-ice, Sens.Heat.(fixed)[-] */
(PID.TID 0000.0001)                 1.630000000000000E-03
(PID.TID 0000.0001)     ;
(PID.TID 0000.0001) exf_albedo =  /* Sea-water albedo [-] */
(PID.TID 0000.0001)                 1.000000000000000E-01
(PID.TID 0000.0001)     ;
(PID.TID 0000.0001) useExfZenAlbedo = /* Sea-water albedo varies with zenith angle */
(PID.TID 0000.0001)                   T
(PID.TID 0000.0001)     ;
(PID.TID 0000.0001) select_ZenAlbedo = /* Sea-water albedo computation method */
(PID.TID 0000.0001)                       1
(PID.TID 0000.0001)     ;
(PID.TID 0000.0001) useExfZenIncoming = /* compute incoming solar radiation */
(PID.TID 0000.0001)                   T
(PID.TID 0000.0001)     ;
(PID.TID 0000.0001) ocean_emissivity = /* longwave ocean-surface emissivity [-] */
(PID.TID 0000.0001)                 9.700000000000000E-01
(PID.TID 0000.0001)     ;
(PID.TID 0000.0001) ice_emissivity = /* longwave seaice emissivity [-] */
(PID.TID 0000.0001)                 9.500000000000000E-01
(PID.TID 0000.0001)     ;
(PID.TID 0000.0001) snow_emissivity = /* longwave snow  emissivity [-] */
(PID.TID 0000.0001)                 9.500000000000000E-01
(PID.TID 0000.0001)     ;
(PID.TID 0000.0001) 
(PID.TID 0000.0001)  EXF main CPP flags:
(PID.TID 0000.0001) 
(PID.TID 0000.0001) // USE_EXF_INTERPOLATION:              defined
(PID.TID 0000.0001) // ALLOW_ATM_TEMP:                     defined
(PID.TID 0000.0001) // ALLOW_ATM_WIND (useAtmWind):        defined
(PID.TID 0000.0001) // ALLOW_DOWNWARD_RADIATION:           defined
(PID.TID 0000.0001) // ALLOW_BULKFORMULAE:                 defined
(PID.TID 0000.0001) 
(PID.TID 0000.0001)    Zonal wind forcing starts at                          0.
(PID.TID 0000.0001)    Zonal wind forcing period is                       3600.
(PID.TID 0000.0001)    Zonal wind forcing repeat-cycle is                    0.
(PID.TID 0000.0001)    Zonal wind forcing is read from file:
(PID.TID 0000.0001)    >> era5/ERA5_u10m <<
(PID.TID 0000.0001)    interpolate "uwind" (method= 12 ):
(PID.TID 0000.0001)    lon0=   0.00000, nlon=  1280, lon_inc= 0.2812500
(PID.TID 0000.0001)    lat0= -89.78489, nlat=   640, inc(min,max)= 0.27868 0.28103
(PID.TID 0000.0001) 
(PID.TID 0000.0001)    Meridional wind forcing starts at                     0.
(PID.TID 0000.0001)    Meridional wind forcing period is                  3600.
(PID.TID 0000.0001)    Meridional wind forcing repeat-cycle is               0.
(PID.TID 0000.0001)    Meridional wind forcing is read from file:
(PID.TID 0000.0001)    >> era5/ERA5_v10m <<
(PID.TID 0000.0001)    interpolate "vwind" (method= 22 ):
(PID.TID 0000.0001)    lon0=   0.00000, nlon=  1280, lon_inc= 0.2812500
(PID.TID 0000.0001)    lat0= -89.78489, nlat=   640, inc(min,max)= 0.27868 0.28103
(PID.TID 0000.0001)     Interp. U & V comp. together: uvInterp_wind =    T
(PID.TID 0000.0001) 
(PID.TID 0000.0001)    Atmospheric temperature starts at                     0.
(PID.TID 0000.0001)    Atmospheric temperature period is                  3600.
(PID.TID 0000.0001)    Atmospheric temperature repeat-cycle is               0.
(PID.TID 0000.0001)    Atmospheric temperature is read from file:
(PID.TID 0000.0001)    >> era5/ERA5_tmp2m_degC <<
(PID.TID 0000.0001)    interpolate "atemp" (method=  1 ):
(PID.TID 0000.0001)    lon0=   0.00000, nlon=  1280, lon_inc= 0.2812500
(PID.TID 0000.0001)    lat0= -89.78489, nlat=   640, inc(min,max)= 0.27868 0.28103
(PID.TID 0000.0001) 
(PID.TID 0000.0001)    Atmospheric specific humidity starts at               0.
(PID.TID 0000.0001)    Atmospheric specific humidity period is            3600.
(PID.TID 0000.0001)    Atmospheric specific humidity rep-cycle is            0.
(PID.TID 0000.0001)    Atmospheric specific humidity is read from file:
(PID.TID 0000.0001)    >> era5/ERA5_spfh2m <<
(PID.TID 0000.0001)    interpolate "aqh" (method=  1 ):
(PID.TID 0000.0001)    lon0=   0.00000, nlon=  1280, lon_inc= 0.2812500
(PID.TID 0000.0001)    lat0= -89.78489, nlat=   640, inc(min,max)= 0.27868 0.28103
(PID.TID 0000.0001) 
(PID.TID 0000.0001) // ALLOW_READ_TURBFLUXES:          NOT defined
(PID.TID 0000.0001) // EXF_READ_EVAP:                  NOT defined
(PID.TID 0000.0001) 
(PID.TID 0000.0001)    Precipitation data starts at                       1800.
(PID.TID 0000.0001)    Precipitation data period is                       3600.
(PID.TID 0000.0001)    Precipitation data repeat-cycle is                    0.
(PID.TID 0000.0001)    Precipitation data is read from file:
(PID.TID 0000.0001)    >> era5/ERA5_rain <<
(PID.TID 0000.0001)    interpolate "precip" (method=  1 ):
(PID.TID 0000.0001)    lon0=   0.00000, nlon=  1280, lon_inc= 0.2812500
(PID.TID 0000.0001)    lat0= -89.78489, nlat=   640, inc(min,max)= 0.27868 0.28103
(PID.TID 0000.0001) 
(PID.TID 0000.0001) // ALLOW_RUNOFF:                       defined
(PID.TID 0000.0001)    Runoff data period is                               -12.
(PID.TID 0000.0001)    Runoff data is read from file:
(PID.TID 0000.0001)    >> runoff1p2472-360x180x12.bin <<
(PID.TID 0000.0001)    interpolate "runoff" (method=  1 ):
(PID.TID 0000.0001)    lon0=   0.50000, nlon=   360, lon_inc= 1.0000000
(PID.TID 0000.0001)    lat0= -89.50000, nlat=   180, lat_inc= 1.0000000
(PID.TID 0000.0001) 
(PID.TID 0000.0001) // ALLOW_RUNOFTEMP:                NOT defined
(PID.TID 0000.0001) // ALLOW_SALTFLX:                      defined
(PID.TID 0000.0001) 
(PID.TID 0000.0001)    Downward shortwave flux starts at                  1800.
(PID.TID 0000.0001)    Downward shortwave flux period is                  3600.
(PID.TID 0000.0001)    Downward shortwave flux repeat-cycle is               0.
(PID.TID 0000.0001)    Downward shortwave flux is read from file:
(PID.TID 0000.0001)    >> era5/ERA5_dsw <<
(PID.TID 0000.0001)    interpolate "swdown" (method=  1 ):
(PID.TID 0000.0001)    lon0=   0.00000, nlon=  1280, lon_inc= 0.2812500
(PID.TID 0000.0001)    lat0= -89.78489, nlat=   640, inc(min,max)= 0.27868 0.28103
(PID.TID 0000.0001) 
(PID.TID 0000.0001)    Downward longwave flux starts at                   1800.
(PID.TID 0000.0001)    Downward longwave flux period is                   3600.
(PID.TID 0000.0001)    Downward longwave flux repeat-cycle is                0.
(PID.TID 0000.0001)    Downward longwave flux is read from file:
(PID.TID 0000.0001)    >> era5/ERA5_dlw <<
(PID.TID 0000.0001)    interpolate "lwdown" (method=  1 ):
(PID.TID 0000.0001)    lon0=   0.00000, nlon=  1280, lon_inc= 0.2812500
(PID.TID 0000.0001)    lat0= -89.78489, nlat=   640, inc(min,max)= 0.27868 0.28103
(PID.TID 0000.0001) 
(PID.TID 0000.0001)    Atmospheric pressure forcing starts at                0.
(PID.TID 0000.0001)    Atmospheric pressure forcing period is             3600.
(PID.TID 0000.0001)    Atmospheric pressure forcing rep-cycle is             0.
(PID.TID 0000.0001)    Atmospheric pressure forcing is read from file:
(PID.TID 0000.0001)    >> era5/ERA5_pres <<
(PID.TID 0000.0001)    interpolate "apressure" (method=  1 ):
(PID.TID 0000.0001)    lon0=   0.00000, nlon=  1280, lon_inc= 0.2812500
(PID.TID 0000.0001)    lat0= -89.78489, nlat=   640, inc(min,max)= 0.27868 0.28103
(PID.TID 0000.0001) 
(PID.TID 0000.0001)    Tidal geopotential starts at                          0.
(PID.TID 0000.0001)    Tidal geopotential period is                       3600.
(PID.TID 0000.0001)    Tidal geopotential repeat-cycle is                    0.
(PID.TID 0000.0001)    Tidal geopotential is read from file:
(PID.TID 0000.0001)    >> tide_IAU_EARTH <<
(PID.TID 0000.0001)    interpolate "tidePot" (method=  1 ):
(PID.TID 0000.0001)    lon0=   0.00000, nlon=   360, lon_inc= 1.0000000
(PID.TID 0000.0001)    lat0= -90.00000, nlat=   181, lat_inc= 1.0000000
(PID.TID 0000.0001) 
(PID.TID 0000.0001) // =======================================================
(PID.TID 0000.0001) // External forcing (EXF) climatology configuration :
(PID.TID 0000.0001) // =======================================================
(PID.TID 0000.0001) 
(PID.TID 0000.0001) // ALLOW_CLIMSST_RELAXATION:       NOT defined
(PID.TID 0000.0001) 
(PID.TID 0000.0001) // ALLOW_CLIMSSS_RELAXATION:       NOT defined
(PID.TID 0000.0001) 
(PID.TID 0000.0001) // =======================================================
(PID.TID 0000.0001) // External forcing (EXF) configuration  >>> END <<<
(PID.TID 0000.0001) // =======================================================
(PID.TID 0000.0001) 
(PID.TID 0000.0001) ------------------------------------------------------------
(PID.TID 0000.0001) DIAGNOSTICS_SET_LEVELS: done
(PID.TID 0000.0001)  Total Nb of available Diagnostics: ndiagt=   213
(PID.TID 0000.0001)  write list of available Diagnostics to file: available_diagnostics.log
(PID.TID 0000.0001) SETDIAG: Allocate  1 x  1 Levels for Diagnostic #    23 ETAN
(PID.TID 0000.0001) SETDIAG: Allocate  1 x  1 Levels for Diagnostic #    80 oceTAUX
(PID.TID 0000.0001) SETDIAG: Allocate  1 x  1 Levels for Diagnostic #    81 oceTAUY
(PID.TID 0000.0001) SETDIAG: Allocate  1 x  1 Levels for Diagnostic #   185 EXFuwind
(PID.TID 0000.0001) SETDIAG: Allocate  1 x  1 Levels for Diagnostic #   186 EXFvwind
(PID.TID 0000.0001) SETDIAG: Allocate100 x  1 Levels for Diagnostic #    26 THETA
(PID.TID 0000.0001) SETDIAG: Allocate100 x  1 Levels for Diagnostic #    27 SALT
(PID.TID 0000.0001) SETDIAG: Allocate100 x  1 Levels for Diagnostic #    30 UVEL
(PID.TID 0000.0001) SETDIAG: Allocate100 x  1 Levels for Diagnostic #    31 VVEL
(PID.TID 0000.0001) SETDIAG: Allocate100 x  1 Levels for Diagnostic #    32 WVEL
(PID.TID 0000.0001) SETDIAG: Allocate100 x  1 Levels for Diagnostic #    36 UVELSQ
(PID.TID 0000.0001) SETDIAG: Allocate100 x  1 Levels for Diagnostic #    37 VVELSQ
(PID.TID 0000.0001) SETDIAG: Allocate100 x  1 Levels for Diagnostic #    52 WTHMASS
(PID.TID 0000.0001) SETDIAG: Allocate100 x  1 Levels for Diagnostic #    55 WSLTMASS
(PID.TID 0000.0001)   space allocated for all diagnostics:     905 levels
(PID.TID 0000.0001)   set mate pointer for diag #    80  oceTAUX  , Parms: UU      U1 , mate:    81
(PID.TID 0000.0001)   set mate pointer for diag #    81  oceTAUY  , Parms: VV      U1 , mate:    80
(PID.TID 0000.0001)   set mate pointer for diag #    30  UVEL     , Parms: UUR     MR , mate:    31
(PID.TID 0000.0001)   set mate pointer for diag #    31  VVEL     , Parms: VVR     MR , mate:    30
(PID.TID 0000.0001)   set mate pointer for diag #    36  UVELSQ   , Parms: UURP    MR , mate:    37
(PID.TID 0000.0001)   set mate pointer for diag #    37  VVELSQ   , Parms: VVRP    MR , mate:    36
(PID.TID 0000.0001) DIAGNOSTICS_SET_POINTERS: Set levels for Outp.Stream: diags/surface
(PID.TID 0000.0001)  Levels:       1.
(PID.TID 0000.0001) DIAGNOSTICS_SET_POINTERS: Set levels for Outp.Stream: diags/interior
(PID.TID 0000.0001)  Levels:       1.   2.   3.   4.   5.   6.   7.   8.   9.  10.  11.  12.  13.  14.  15.  16.  17.  18.  19.  20.
(PID.TID 0000.0001)  Levels:      21.  22.  23.  24.  25.  26.  27.  28.  29.  30.  31.  32.  33.  34.  35.  36.  37.  38.  39.  40.
(PID.TID 0000.0001)  Levels:      41.  42.  43.  44.  45.  46.  47.  48.  49.  50.  51.  52.  53.  54.  55.  56.  57.  58.  59.  60.
(PID.TID 0000.0001)  Levels:      61.  62.  63.  64.  65.  66.  67.  68.  69.  70.  71.  72.  73.  74.  75.  76.  77.  78.  79.  80.
(PID.TID 0000.0001)  Levels:      81.  82.  83.  84.  85.  86.  87.  88.  89.  90.  91.  92.  93.  94.  95.  96.  97.  98.  99. 100.
(PID.TID 0000.0001) DIAGNOSTICS_SET_POINTERS: done
(PID.TID 0000.0001) ------------------------------------------------------------
(PID.TID 0000.0001) DIAGSTATS_SET_REGIONS: define no region
(PID.TID 0000.0001) ------------------------------------------------------------
(PID.TID 0000.0001)   space allocated for all stats-diags:       0 levels
(PID.TID 0000.0001) DIAGSTATS_SET_POINTERS: done
(PID.TID 0000.0001) ------------------------------------------------------------
(PID.TID 0000.0001) %MON fCori_max                    =   1.0031064840358E-04
(PID.TID 0000.0001) %MON fCori_min                    =   6.5921486603128E-05
(PID.TID 0000.0001) %MON fCori_mean                   =   8.3936872523081E-05
(PID.TID 0000.0001) %MON fCori_sd                     =   9.8545159722241E-06
(PID.TID 0000.0001) %MON fCoriG_max                   =   1.0028465045639E-04
(PID.TID 0000.0001) %MON fCoriG_min                   =   6.5882690911173E-05
(PID.TID 0000.0001) %MON fCoriG_mean                  =   8.3904363816394E-05
(PID.TID 0000.0001) %MON fCoriG_sd                    =   9.8581982025545E-06
(PID.TID 0000.0001) %MON fCoriCos_max                 =   1.3009374988389E-04
(PID.TID 0000.0001) %MON fCoriCos_min                 =   1.0586689743103E-04
(PID.TID 0000.0001) %MON fCoriCos_mean                =   1.1865496523699E-04
(PID.TID 0000.0001) %MON fCoriCos_sd                  =   6.9652943530273E-06
(PID.TID 0000.0001) INI_CG2D: CG2D normalisation factor =  1.4987118910715993E-04
(PID.TID 0000.0001) INI_CG2D: cg2dTolerance = 7.057349561527462E-12 (Area=1.1301464310E+13)
(PID.TID 0000.0001) 
(PID.TID 0000.0001) // =======================================================
(PID.TID 0000.0001) // Model configuration
(PID.TID 0000.0001) // =======================================================
(PID.TID 0000.0001) //
(PID.TID 0000.0001) // "Physical" paramters ( PARM01 in namelist )
(PID.TID 0000.0001) //
(PID.TID 0000.0001) buoyancyRelation = /* Type of relation to get Buoyancy */
(PID.TID 0000.0001)               'OCEANIC'
(PID.TID 0000.0001)     ;
(PID.TID 0000.0001) fluidIsAir   =  /* fluid major constituent is Air */
(PID.TID 0000.0001)                   F
(PID.TID 0000.0001)     ;
(PID.TID 0000.0001) fluidIsWater =  /* fluid major constituent is Water */
(PID.TID 0000.0001)                   T
(PID.TID 0000.0001)     ;
(PID.TID 0000.0001) usingPCoords =  /* use p (or p*) vertical coordinate */
(PID.TID 0000.0001)                   F
(PID.TID 0000.0001)     ;
(PID.TID 0000.0001) usingZCoords =  /* use z (or z*) vertical coordinate */
(PID.TID 0000.0001)                   T
(PID.TID 0000.0001)     ;
(PID.TID 0000.0001) tRef =   /* Reference temperature profile ( oC or K ) */
(PID.TID 0000.0001)     5 @  1.889000000000000E+01,             /* K =  1:  5 */
(PID.TID 0000.0001)                 1.887000000000000E+01,      /* K =  6 */
(PID.TID 0000.0001)                 1.885000000000000E+01,      /* K =  7 */
(PID.TID 0000.0001)                 1.882000000000000E+01,      /* K =  8 */
(PID.TID 0000.0001)                 1.880000000000000E+01,      /* K =  9 */
(PID.TID 0000.0001)                 1.873000000000000E+01,      /* K = 10 */
(PID.TID 0000.0001)                 1.863000000000000E+01,      /* K = 11 */
(PID.TID 0000.0001)                 1.849000000000000E+01,      /* K = 12 */
(PID.TID 0000.0001)                 1.828000000000000E+01,      /* K = 13 */
(PID.TID 0000.0001)                 1.808000000000000E+01,      /* K = 14 */
(PID.TID 0000.0001)                 1.786000000000000E+01,      /* K = 15 */
(PID.TID 0000.0001)                 1.763000000000000E+01,      /* K = 16 */
(PID.TID 0000.0001)                 1.740000000000000E+01,      /* K = 17 */
(PID.TID 0000.0001)                 1.718000000000000E+01,      /* K = 18 */
(PID.TID 0000.0001)                 1.695000000000000E+01,      /* K = 19 */
(PID.TID 0000.0001)                 1.673000000000000E+01,      /* K = 20 */
(PID.TID 0000.0001)                 1.652000000000000E+01,      /* K = 21 */
(PID.TID 0000.0001)                 1.631000000000000E+01,      /* K = 22 */
(PID.TID 0000.0001)                 1.610000000000000E+01,      /* K = 23 */
(PID.TID 0000.0001)                 1.589000000000000E+01,      /* K = 24 */
(PID.TID 0000.0001)                 1.569000000000000E+01,      /* K = 25 */
(PID.TID 0000.0001)                 1.549000000000000E+01,      /* K = 26 */
(PID.TID 0000.0001)                 1.528000000000000E+01,      /* K = 27 */
(PID.TID 0000.0001)                 1.508000000000000E+01,      /* K = 28 */
(PID.TID 0000.0001)                 1.488000000000000E+01,      /* K = 29 */
(PID.TID 0000.0001)                 1.467000000000000E+01,      /* K = 30 */
(PID.TID 0000.0001)                 1.447000000000000E+01,      /* K = 31 */
(PID.TID 0000.0001)                 1.425000000000000E+01,      /* K = 32 */
(PID.TID 0000.0001)                 1.403000000000000E+01,      /* K = 33 */
(PID.TID 0000.0001)                 1.380000000000000E+01,      /* K = 34 */
(PID.TID 0000.0001)                 1.355000000000000E+01,      /* K = 35 */
(PID.TID 0000.0001)                 1.329000000000000E+01,      /* K = 36 */
(PID.TID 0000.0001)                 1.301000000000000E+01,      /* K = 37 */
(PID.TID 0000.0001)                 1.273000000000000E+01,      /* K = 38 */
(PID.TID 0000.0001)                 1.242000000000000E+01,      /* K = 39 */
(PID.TID 0000.0001)                 1.211000000000000E+01,      /* K = 40 */
(PID.TID 0000.0001)                 1.178000000000000E+01,      /* K = 41 */
(PID.TID 0000.0001)                 1.143000000000000E+01,      /* K = 42 */
(PID.TID 0000.0001)                 1.107000000000000E+01,      /* K = 43 */
(PID.TID 0000.0001)                 1.070000000000000E+01,      /* K = 44 */
(PID.TID 0000.0001)                 1.031000000000000E+01,      /* K = 45 */
(PID.TID 0000.0001)                 9.930000000000000E+00,      /* K = 46 */
(PID.TID 0000.0001)                 9.529999999999999E+00,      /* K = 47 */
(PID.TID 0000.0001)                 9.109999999999999E+00,      /* K = 48 */
(PID.TID 0000.0001)                 8.710000000000001E+00,      /* K = 49 */
(PID.TID 0000.0001)                 8.289999999999999E+00,      /* K = 50 */
(PID.TID 0000.0001)                 7.890000000000000E+00,      /* K = 51 */
(PID.TID 0000.0001)                 7.510000000000000E+00,      /* K = 52 */
(PID.TID 0000.0001)                 7.130000000000000E+00,      /* K = 53 */
(PID.TID 0000.0001)                 6.780000000000000E+00,      /* K = 54 */
(PID.TID 0000.0001)                 6.440000000000000E+00,      /* K = 55 */
(PID.TID 0000.0001)                 6.110000000000000E+00,      /* K = 56 */
(PID.TID 0000.0001)                 5.810000000000000E+00,      /* K = 57 */
(PID.TID 0000.0001)                 5.510000000000000E+00,      /* K = 58 */
(PID.TID 0000.0001)                 5.230000000000000E+00,      /* K = 59 */
(PID.TID 0000.0001)                 4.970000000000000E+00,      /* K = 60 */
(PID.TID 0000.0001)                 4.730000000000000E+00,      /* K = 61 */
(PID.TID 0000.0001)                 4.510000000000000E+00,      /* K = 62 */
(PID.TID 0000.0001)                 4.300000000000000E+00,      /* K = 63 */
(PID.TID 0000.0001)                 4.110000000000000E+00,      /* K = 64 */
(PID.TID 0000.0001)                 3.940000000000000E+00,      /* K = 65 */
(PID.TID 0000.0001)                 3.780000000000000E+00,      /* K = 66 */
(PID.TID 0000.0001)                 3.630000000000000E+00,      /* K = 67 */
(PID.TID 0000.0001)                 3.500000000000000E+00,      /* K = 68 */
(PID.TID 0000.0001)                 3.380000000000000E+00,      /* K = 69 */
(PID.TID 0000.0001)                 3.250000000000000E+00,      /* K = 70 */
(PID.TID 0000.0001)                 3.140000000000000E+00,      /* K = 71 */
(PID.TID 0000.0001)                 3.040000000000000E+00,      /* K = 72 */
(PID.TID 0000.0001)                 2.940000000000000E+00,      /* K = 73 */
(PID.TID 0000.0001)                 2.830000000000000E+00,      /* K = 74 */
(PID.TID 0000.0001)                 2.740000000000000E+00,      /* K = 75 */
(PID.TID 0000.0001)                 2.640000000000000E+00,      /* K = 76 */
(PID.TID 0000.0001)                 2.540000000000000E+00,      /* K = 77 */
(PID.TID 0000.0001)                 2.450000000000000E+00,      /* K = 78 */
(PID.TID 0000.0001)                 2.360000000000000E+00,      /* K = 79 */
(PID.TID 0000.0001)                 2.270000000000000E+00,      /* K = 80 */
(PID.TID 0000.0001)                 2.190000000000000E+00,      /* K = 81 */
(PID.TID 0000.0001)                 2.100000000000000E+00,      /* K = 82 */
(PID.TID 0000.0001)                 2.030000000000000E+00,      /* K = 83 */
(PID.TID 0000.0001)                 1.950000000000000E+00,      /* K = 84 */
(PID.TID 0000.0001)                 1.860000000000000E+00,      /* K = 85 */
(PID.TID 0000.0001)                 1.780000000000000E+00,      /* K = 86 */
(PID.TID 0000.0001)                 1.700000000000000E+00,      /* K = 87 */
(PID.TID 0000.0001)                 1.630000000000000E+00,      /* K = 88 */
(PID.TID 0000.0001)                 1.550000000000000E+00,      /* K = 89 */
(PID.TID 0000.0001)                 1.480000000000000E+00,      /* K = 90 */
(PID.TID 0000.0001)                 1.410000000000000E+00,      /* K = 91 */
(PID.TID 0000.0001)                 1.340000000000000E+00,      /* K = 92 */
(PID.TID 0000.0001)                 1.270000000000000E+00,      /* K = 93 */
(PID.TID 0000.0001)                 1.200000000000000E+00,      /* K = 94 */
(PID.TID 0000.0001)                 1.130000000000000E+00,      /* K = 95 */
(PID.TID 0000.0001)                 1.060000000000000E+00,      /* K = 96 */
(PID.TID 0000.0001)                 1.000000000000000E+00,      /* K = 97 */
(PID.TID 0000.0001)                 9.600000000000000E-01,      /* K = 98 */
(PID.TID 0000.0001)                 9.300000000000000E-01,      /* K = 99 */
(PID.TID 0000.0001)                 9.100000000000000E-01       /* K =100 */
(PID.TID 0000.0001)     ;
(PID.TID 0000.0001) sRef =   /* Reference salinity profile ( psu ) */
(PID.TID 0000.0001)     6 @  3.484000000000000E+01,             /* K =  1:  6 */
(PID.TID 0000.0001)     3 @  3.485000000000000E+01,             /* K =  7:  9 */
(PID.TID 0000.0001)                 3.486000000000000E+01,      /* K = 10 */
(PID.TID 0000.0001)                 3.487000000000000E+01,      /* K = 11 */
(PID.TID 0000.0001)                 3.488000000000000E+01,      /* K = 12 */
(PID.TID 0000.0001)                 3.490000000000000E+01,      /* K = 13 */
(PID.TID 0000.0001)                 3.491000000000000E+01,      /* K = 14 */
(PID.TID 0000.0001)                 3.493000000000000E+01,      /* K = 15 */
(PID.TID 0000.0001)                 3.495000000000000E+01,      /* K = 16 */
(PID.TID 0000.0001)                 3.496000000000000E+01,      /* K = 17 */
(PID.TID 0000.0001)                 3.498000000000000E+01,      /* K = 18 */
(PID.TID 0000.0001)                 3.499000000000000E+01,      /* K = 19 */
(PID.TID 0000.0001)                 3.500000000000000E+01,      /* K = 20 */
(PID.TID 0000.0001)                 3.501000000000000E+01,      /* K = 21 */
(PID.TID 0000.0001)                 3.502000000000000E+01,      /* K = 22 */
(PID.TID 0000.0001)                 3.503000000000000E+01,      /* K = 23 */
(PID.TID 0000.0001)                 3.504000000000000E+01,      /* K = 24 */
(PID.TID 0000.0001)                 3.505000000000000E+01,      /* K = 25 */
(PID.TID 0000.0001)                 3.506000000000000E+01,      /* K = 26 */
(PID.TID 0000.0001)     7 @  3.507000000000000E+01,             /* K = 27: 33 */
(PID.TID 0000.0001)                 3.506000000000000E+01,      /* K = 34 */
(PID.TID 0000.0001)                 3.505000000000000E+01,      /* K = 35 */
(PID.TID 0000.0001)                 3.504000000000000E+01,      /* K = 36 */
(PID.TID 0000.0001)                 3.503000000000000E+01,      /* K = 37 */
(PID.TID 0000.0001)                 3.502000000000000E+01,      /* K = 38 */
(PID.TID 0000.0001)                 3.501000000000000E+01,      /* K = 39 */
(PID.TID 0000.0001)                 3.499000000000000E+01,      /* K = 40 */
(PID.TID 0000.0001)                 3.497000000000000E+01,      /* K = 41 */
(PID.TID 0000.0001)                 3.495000000000000E+01,      /* K = 42 */
(PID.TID 0000.0001)                 3.492000000000000E+01,      /* K = 43 */
(PID.TID 0000.0001)                 3.490000000000000E+01,      /* K = 44 */
(PID.TID 0000.0001)                 3.487000000000000E+01,      /* K = 45 */
(PID.TID 0000.0001)                 3.484000000000000E+01,      /* K = 46 */
(PID.TID 0000.0001)                 3.481000000000000E+01,      /* K = 47 */
(PID.TID 0000.0001)                 3.478000000000000E+01,      /* K = 48 */
(PID.TID 0000.0001)                 3.475000000000000E+01,      /* K = 49 */
(PID.TID 0000.0001)                 3.472000000000000E+01,      /* K = 50 */
(PID.TID 0000.0001)                 3.469000000000000E+01,      /* K = 51 */
(PID.TID 0000.0001)                 3.467000000000000E+01,      /* K = 52 */
(PID.TID 0000.0001)                 3.465000000000000E+01,      /* K = 53 */
(PID.TID 0000.0001)                 3.462000000000000E+01,      /* K = 54 */
(PID.TID 0000.0001)                 3.461000000000000E+01,      /* K = 55 */
(PID.TID 0000.0001)                 3.460000000000000E+01,      /* K = 56 */
(PID.TID 0000.0001)     2 @  3.459000000000000E+01,             /* K = 57: 58 */
(PID.TID 0000.0001)                 3.458000000000000E+01,      /* K = 59 */
(PID.TID 0000.0001)     2 @  3.459000000000000E+01,             /* K = 60: 61 */
(PID.TID 0000.0001)     2 @  3.460000000000000E+01,             /* K = 62: 63 */
(PID.TID 0000.0001)                 3.461000000000000E+01,      /* K = 64 */
(PID.TID 0000.0001)                 3.462000000000000E+01,      /* K = 65 */
(PID.TID 0000.0001)                 3.463000000000000E+01,      /* K = 66 */
(PID.TID 0000.0001)                 3.464000000000000E+01,      /* K = 67 */
(PID.TID 0000.0001)                 3.465000000000000E+01,      /* K = 68 */
(PID.TID 0000.0001)                 3.466000000000000E+01,      /* K = 69 */
(PID.TID 0000.0001)     2 @  3.467000000000000E+01,             /* K = 70: 71 */
(PID.TID 0000.0001)                 3.468000000000000E+01,      /* K = 72 */
(PID.TID 0000.0001)                 3.469000000000000E+01,      /* K = 73 */
(PID.TID 0000.0001)                 3.470000000000000E+01,      /* K = 74 */
(PID.TID 0000.0001)     2 @  3.471000000000000E+01,             /* K = 75: 76 */
(PID.TID 0000.0001)     2 @  3.472000000000000E+01,             /* K = 77: 78 */
(PID.TID 0000.0001)     3 @  3.473000000000000E+01,             /* K = 79: 81 */
(PID.TID 0000.0001)     4 @  3.474000000000000E+01,             /* K = 82: 85 */
(PID.TID 0000.0001)                 3.475000000000000E+01,      /* K = 86 */
(PID.TID 0000.0001)     8 @  3.474000000000000E+01,             /* K = 87: 94 */
(PID.TID 0000.0001)     6 @  3.473000000000000E+01              /* K = 95:100 */
(PID.TID 0000.0001)     ;
(PID.TID 0000.0001) useStrainTensionVisc= /* Use StrainTension Form of Viscous Operator */
(PID.TID 0000.0001)                   F
(PID.TID 0000.0001)     ;
(PID.TID 0000.0001) useVariableVisc = /* Use variable horizontal viscosity */
(PID.TID 0000.0001)                   T
(PID.TID 0000.0001)     ;
(PID.TID 0000.0001) useHarmonicVisc = /* Use harmonic horizontal viscosity */
(PID.TID 0000.0001)                   F
(PID.TID 0000.0001)     ;
(PID.TID 0000.0001) useBiharmonicVisc= /* Use biharmonic horiz.  viscosity */
(PID.TID 0000.0001)                   T
(PID.TID 0000.0001)     ;
(PID.TID 0000.0001) useSmag3D = /* Use isotropic 3-D Smagorinsky viscosity */
(PID.TID 0000.0001)                   F
(PID.TID 0000.0001)     ;
(PID.TID 0000.0001) viscAh  =   /* Lateral harmonic viscosity ( m^2/s ) */
(PID.TID 0000.0001)                 0.000000000000000E+00
(PID.TID 0000.0001)     ;
(PID.TID 0000.0001) viscAhMax = /* Maximum lateral harmonic viscosity ( m^2/s ) */
(PID.TID 0000.0001)                 1.000000000000000E+21
(PID.TID 0000.0001)     ;
(PID.TID 0000.0001) viscAhGrid = /* Grid dependent lateral harmonic viscosity ( non-dim. ) */
(PID.TID 0000.0001)                 0.000000000000000E+00
(PID.TID 0000.0001)     ;
(PID.TID 0000.0001) useFullLeith = /* Use Full Form of Leith Viscosity on/off flag*/
(PID.TID 0000.0001)                   F
(PID.TID 0000.0001)     ;
(PID.TID 0000.0001) useAreaViscLength = /* Use area for visc length instead of geom. mean*/
(PID.TID 0000.0001)                   T
(PID.TID 0000.0001)     ;
(PID.TID 0000.0001) viscC2leith = /* Leith harmonic visc. factor (on grad(vort),non-dim.) */
(PID.TID 0000.0001)                 0.000000000000000E+00
(PID.TID 0000.0001)     ;
(PID.TID 0000.0001) viscC2leithD = /* Leith harmonic viscosity factor (on grad(div),non-dim.)*/
(PID.TID 0000.0001)                 0.000000000000000E+00
(PID.TID 0000.0001)     ;
(PID.TID 0000.0001) viscC2smag = /* Smagorinsky harmonic viscosity factor (non-dim.) */
(PID.TID 0000.0001)                 0.000000000000000E+00
(PID.TID 0000.0001)     ;
(PID.TID 0000.0001) viscA4  =   /* Lateral biharmonic viscosity ( m^4/s ) */
(PID.TID 0000.0001)                 0.000000000000000E+00
(PID.TID 0000.0001)     ;
(PID.TID 0000.0001) viscA4Max = /* Maximum biharmonic viscosity ( m^2/s ) */
(PID.TID 0000.0001)                 1.000000000000000E+21
(PID.TID 0000.0001)     ;
(PID.TID 0000.0001) viscA4Grid = /* Grid dependent biharmonic viscosity ( non-dim. ) */
(PID.TID 0000.0001)                 0.000000000000000E+00
(PID.TID 0000.0001)     ;
(PID.TID 0000.0001) viscC4leith = /* Leith biharm viscosity factor (on grad(vort), non-dim.)*/
(PID.TID 0000.0001)                 2.000000000000000E+00
(PID.TID 0000.0001)     ;
(PID.TID 0000.0001) viscC4leithD = /* Leith biharm viscosity factor (on grad(div), non-dim.) */
(PID.TID 0000.0001)                 2.000000000000000E+00
(PID.TID 0000.0001)     ;
(PID.TID 0000.0001) viscC4Smag = /* Smagorinsky biharm viscosity factor (non-dim) */
(PID.TID 0000.0001)                 0.000000000000000E+00
(PID.TID 0000.0001)     ;
(PID.TID 0000.0001) no_slip_sides =  /* Viscous BCs: No-slip sides */
(PID.TID 0000.0001)                   T
(PID.TID 0000.0001)     ;
(PID.TID 0000.0001) sideDragFactor = /* side-drag scaling factor (non-dim) */
(PID.TID 0000.0001)                 2.000000000000000E+00
(PID.TID 0000.0001)     ;
(PID.TID 0000.0001) viscArNr = /* vertical profile of vertical viscosity ( m^2/s )*/
(PID.TID 0000.0001)   100 @  5.000000000000000E-04              /* K =  1:100 */
(PID.TID 0000.0001)     ;
(PID.TID 0000.0001) no_slip_bottom =  /* Viscous BCs: No-slip bottom */
(PID.TID 0000.0001)                   T
(PID.TID 0000.0001)     ;
(PID.TID 0000.0001) bottomVisc_pCell = /* Partial-cell in bottom Visc. BC */
(PID.TID 0000.0001)                   F
(PID.TID 0000.0001)     ;
(PID.TID 0000.0001) bottomDragLinear = /* linear bottom-drag coefficient ( m/s ) */
(PID.TID 0000.0001)                 0.000000000000000E+00
(PID.TID 0000.0001)     ;
(PID.TID 0000.0001) bottomDragQuadratic = /* quadratic bottom-drag coefficient (-) */
(PID.TID 0000.0001)                 2.000000000000000E-03
(PID.TID 0000.0001)     ;
(PID.TID 0000.0001) selectBotDragQuadr = /* select quadratic bottom drag options */
(PID.TID 0000.0001)                       0
(PID.TID 0000.0001)     ;
(PID.TID 0000.0001) diffKhT =   /* Laplacian diffusion of heat laterally ( m^2/s ) */
(PID.TID 0000.0001)                 0.000000000000000E+00
(PID.TID 0000.0001)     ;
(PID.TID 0000.0001) diffK4T =   /* Biharmonic diffusion of heat laterally ( m^4/s ) */
(PID.TID 0000.0001)                 0.000000000000000E+00
(PID.TID 0000.0001)     ;
(PID.TID 0000.0001) diffKhS =   /* Laplacian diffusion of salt laterally ( m^2/s ) */
(PID.TID 0000.0001)                 0.000000000000000E+00
(PID.TID 0000.0001)     ;
(PID.TID 0000.0001) diffK4S =   /* Biharmonic diffusion of salt laterally ( m^4/s ) */
(PID.TID 0000.0001)                 0.000000000000000E+00
(PID.TID 0000.0001)     ;
(PID.TID 0000.0001) diffKrNrT = /* vertical profile of vertical diffusion of Temp ( m^2/s )*/
(PID.TID 0000.0001)   100 @  1.000000000000000E-05              /* K =  1:100 */
(PID.TID 0000.0001)     ;
(PID.TID 0000.0001) diffKrNrS = /* vertical profile of vertical diffusion of Salt ( m^2/s )*/
(PID.TID 0000.0001)   100 @  1.000000000000000E-05              /* K =  1:100 */
(PID.TID 0000.0001)     ;
(PID.TID 0000.0001) diffKrBL79surf = /* Surface diffusion for Bryan and Lewis 79 ( m^2/s ) */
(PID.TID 0000.0001)                 0.000000000000000E+00
(PID.TID 0000.0001)     ;
(PID.TID 0000.0001) diffKrBL79deep = /* Deep diffusion for Bryan and Lewis 1979 ( m^2/s ) */
(PID.TID 0000.0001)                 0.000000000000000E+00
(PID.TID 0000.0001)     ;
(PID.TID 0000.0001) diffKrBL79scl = /* Depth scale for Bryan and Lewis 1979 ( m ) */
(PID.TID 0000.0001)                 2.000000000000000E+02
(PID.TID 0000.0001)     ;
(PID.TID 0000.0001) diffKrBL79Ho = /* Turning depth for Bryan and Lewis 1979 ( m ) */
(PID.TID 0000.0001)                -2.000000000000000E+03
(PID.TID 0000.0001)     ;
(PID.TID 0000.0001) ivdc_kappa = /* Implicit Vertical Diffusivity for Convection ( m^2/s) */
(PID.TID 0000.0001)                 0.000000000000000E+00
(PID.TID 0000.0001)     ;
(PID.TID 0000.0001) hMixCriteria=  /* Criteria for mixed-layer diagnostic */
(PID.TID 0000.0001)                -8.000000000000000E-01
(PID.TID 0000.0001)     ;
(PID.TID 0000.0001) dRhoSmall =  /* Parameter for mixed-layer diagnostic */
(PID.TID 0000.0001)                 1.000000000000000E-06
(PID.TID 0000.0001)     ;
(PID.TID 0000.0001) hMixSmooth=  /* Smoothing parameter for mixed-layer diagnostic */
(PID.TID 0000.0001)                 0.000000000000000E+00
(PID.TID 0000.0001)     ;
(PID.TID 0000.0001) eosType =  /* Type of Equation of State */
(PID.TID 0000.0001)               'JMD95Z'
(PID.TID 0000.0001)     ;
(PID.TID 0000.0001) selectP_inEOS_Zc = /* select pressure to use in EOS (0,1,2,3) */
(PID.TID 0000.0001)                       0
(PID.TID 0000.0001)     0= -g*rhoConst*z ; 1= pRef (from tRef,sRef); 2= Hyd P ; 3= Hyd+NH P
(PID.TID 0000.0001)     ;
(PID.TID 0000.0001) HeatCapacity_Cp =  /* Specific heat capacity ( J/kg/K ) */
(PID.TID 0000.0001)                 3.994000000000000E+03
(PID.TID 0000.0001)     ;
(PID.TID 0000.0001) celsius2K = /* 0 degree Celsius converted to Kelvin ( K ) */
(PID.TID 0000.0001)                 2.731500000000000E+02
(PID.TID 0000.0001)     ;
(PID.TID 0000.0001) rhoConst  = /* Reference density (Boussinesq)  ( kg/m^3 ) */
(PID.TID 0000.0001)                 1.029000000000000E+03
(PID.TID 0000.0001)     ;
(PID.TID 0000.0001) rhoFacC = /* normalized Reference density @ cell-Center (-) */
(PID.TID 0000.0001)   100 @  1.000000000000000E+00              /* K =  1:100 */
(PID.TID 0000.0001)     ;
(PID.TID 0000.0001) rhoFacF = /* normalized Reference density @ W-Interface (-) */
(PID.TID 0000.0001)   101 @  1.000000000000000E+00              /* K =  1:101 */
(PID.TID 0000.0001)     ;
(PID.TID 0000.0001) rhoConstFresh = /* Fresh-water reference density ( kg/m^3 ) */
(PID.TID 0000.0001)                 1.000000000000000E+03
(PID.TID 0000.0001)     ;
(PID.TID 0000.0001) gravity =   /* Gravitational acceleration ( m/s^2 ) */
(PID.TID 0000.0001)                 9.810000000000000E+00
(PID.TID 0000.0001)     ;
(PID.TID 0000.0001) gBaro =   /* Barotropic gravity ( m/s^2 ) */
(PID.TID 0000.0001)                 9.810000000000000E+00
(PID.TID 0000.0001)     ;
(PID.TID 0000.0001) gravFacC = /* gravity factor (vs surf.) @ cell-Center (-) */
(PID.TID 0000.0001)   100 @  1.000000000000000E+00              /* K =  1:100 */
(PID.TID 0000.0001)     ;
(PID.TID 0000.0001) gravFacF = /* gravity factor (vs surf.) @ W-Interface (-) */
(PID.TID 0000.0001)   101 @  1.000000000000000E+00              /* K =  1:101 */
(PID.TID 0000.0001)     ;
(PID.TID 0000.0001) rotationPeriod =   /* Rotation Period ( s ) */
(PID.TID 0000.0001)                 8.616400000000000E+04
(PID.TID 0000.0001)     ;
(PID.TID 0000.0001) omega =   /* Angular velocity ( rad/s ) */
(PID.TID 0000.0001)                 7.292123516990375E-05
(PID.TID 0000.0001)     ;
(PID.TID 0000.0001) f0 =   /* Reference coriolis parameter ( 1/s ) */
(PID.TID 0000.0001)                 1.000000000000000E-04
(PID.TID 0000.0001)     ;
(PID.TID 0000.0001) beta =   /* Beta ( 1/(m.s) ) */
(PID.TID 0000.0001)                 9.999999999999999E-12
(PID.TID 0000.0001)     ;
(PID.TID 0000.0001) fPrime =   /* Second coriolis parameter ( 1/s ) */
(PID.TID 0000.0001)                 0.000000000000000E+00
(PID.TID 0000.0001)     ;
(PID.TID 0000.0001) rigidLid =   /* Rigid lid on/off flag */
(PID.TID 0000.0001)                   F
(PID.TID 0000.0001)     ;
(PID.TID 0000.0001) implicitFreeSurface =   /* Implicit free surface on/off flag */
(PID.TID 0000.0001)                   T
(PID.TID 0000.0001)     ;
(PID.TID 0000.0001) freeSurfFac =   /* Implicit free surface factor */
(PID.TID 0000.0001)                 1.000000000000000E+00
(PID.TID 0000.0001)     ;
(PID.TID 0000.0001) implicSurfPress =  /* Surface Pressure implicit factor (0-1)*/
(PID.TID 0000.0001)                 1.000000000000000E+00
(PID.TID 0000.0001)     ;
(PID.TID 0000.0001) implicDiv2DFlow =  /* Barot. Flow Div. implicit factor (0-1)*/
(PID.TID 0000.0001)                 1.000000000000000E+00
(PID.TID 0000.0001)     ;
(PID.TID 0000.0001) uniformLin_PhiSurf = /* use uniform Bo_surf on/off flag*/
(PID.TID 0000.0001)                   T
(PID.TID 0000.0001)     ;
(PID.TID 0000.0001) uniformFreeSurfLev = /* free-surface level-index is uniform */
(PID.TID 0000.0001)                   T
(PID.TID 0000.0001)     ;
(PID.TID 0000.0001) hFacMin =   /* minimum partial cell factor (hFac) */
(PID.TID 0000.0001)                 2.000000000000000E-01
(PID.TID 0000.0001)     ;
(PID.TID 0000.0001) hFacMinDr = /* minimum partial cell thickness ( m) */
(PID.TID 0000.0001)                 5.000000000000000E+00
(PID.TID 0000.0001)     ;
(PID.TID 0000.0001) exactConserv =  /* Exact Volume Conservation on/off flag*/
(PID.TID 0000.0001)                   T
(PID.TID 0000.0001)     ;
(PID.TID 0000.0001) linFSConserveTr = /* Tracer correction for Lin Free Surface on/off flag*/
(PID.TID 0000.0001)                   F
(PID.TID 0000.0001)     ;
(PID.TID 0000.0001) nonlinFreeSurf = /* Non-linear Free Surf. options (-1,0,1,2,3)*/
(PID.TID 0000.0001)                       0
(PID.TID 0000.0001)      -1,0= Off ; 1,2,3= On, 2=+rescale gU,gV, 3=+update cg2d solv.
(PID.TID 0000.0001)     ;
(PID.TID 0000.0001) hFacInf =   /* lower threshold for hFac (nonlinFreeSurf only)*/
(PID.TID 0000.0001)                 2.000000000000000E-01
(PID.TID 0000.0001)     ;
(PID.TID 0000.0001) hFacSup =   /* upper threshold for hFac (nonlinFreeSurf only)*/
(PID.TID 0000.0001)                 2.000000000000000E+00
(PID.TID 0000.0001)     ;
(PID.TID 0000.0001) select_rStar = /* r* Vertical coord. options (=0 r coord.; >0 uses r*)*/
(PID.TID 0000.0001)                       0
(PID.TID 0000.0001)     ;
(PID.TID 0000.0001) useRealFreshWaterFlux = /* Real Fresh Water Flux on/off flag*/
(PID.TID 0000.0001)                   F
(PID.TID 0000.0001)     ;
(PID.TID 0000.0001) temp_EvPrRn = /* Temp. of Evap/Prec/R (UNSET=use local T)(oC)*/
(PID.TID 0000.0001)                 0.000000000000000E+00
(PID.TID 0000.0001)     ;
(PID.TID 0000.0001) salt_EvPrRn = /* Salin. of Evap/Prec/R (UNSET=use local S)(psu)*/
(PID.TID 0000.0001)                 0.000000000000000E+00
(PID.TID 0000.0001)     ;
(PID.TID 0000.0001) selectAddFluid = /* option for mass source/sink of fluid (=0: off) */
(PID.TID 0000.0001)                       0
(PID.TID 0000.0001)     ;
(PID.TID 0000.0001) temp_addMass = /* Temp. of addMass array (UNSET=use local T)(oC)*/
(PID.TID 0000.0001)                 0.000000000000000E+00
(PID.TID 0000.0001)     ;
(PID.TID 0000.0001) salt_addMass = /* Salin. of addMass array (UNSET=use local S)(psu)*/
(PID.TID 0000.0001)                 0.000000000000000E+00
(PID.TID 0000.0001)     ;
(PID.TID 0000.0001) convertFW2Salt = /* convert F.W. Flux to Salt Flux (-1=use local S)(psu)*/
(PID.TID 0000.0001)                -1.000000000000000E+00
(PID.TID 0000.0001)     ;
(PID.TID 0000.0001) use3Dsolver = /* use 3-D pressure solver on/off flag */
(PID.TID 0000.0001)                   F
(PID.TID 0000.0001)     ;
(PID.TID 0000.0001) nonHydrostatic =  /* Non-Hydrostatic on/off flag */
(PID.TID 0000.0001)                   F
(PID.TID 0000.0001)     ;
(PID.TID 0000.0001) nh_Am2 = /* Non-Hydrostatic terms scaling factor */
(PID.TID 0000.0001)                 1.000000000000000E+00
(PID.TID 0000.0001)     ;
(PID.TID 0000.0001) implicitNHPress = /* Non-Hyd Pressure implicit factor (0-1)*/
(PID.TID 0000.0001)                 1.000000000000000E+00
(PID.TID 0000.0001)     ;
(PID.TID 0000.0001) selectNHfreeSurf = /* Non-Hyd (free-)Surface option */
(PID.TID 0000.0001)                       0
(PID.TID 0000.0001)     ;
(PID.TID 0000.0001) quasiHydrostatic = /* Quasi-Hydrostatic on/off flag */
(PID.TID 0000.0001)                   F
(PID.TID 0000.0001)     ;
(PID.TID 0000.0001) calc_wVelocity = /* vertical velocity calculation on/off flag */
(PID.TID 0000.0001)                   T
(PID.TID 0000.0001)     ;
(PID.TID 0000.0001) momStepping =  /* Momentum equation on/off flag */
(PID.TID 0000.0001)                   T
(PID.TID 0000.0001)     ;
(PID.TID 0000.0001) vectorInvariantMomentum= /* Vector-Invariant Momentum on/off */
(PID.TID 0000.0001)                   T
(PID.TID 0000.0001)     ;
(PID.TID 0000.0001) momAdvection =  /* Momentum advection on/off flag */
(PID.TID 0000.0001)                   T
(PID.TID 0000.0001)     ;
(PID.TID 0000.0001) momViscosity =  /* Momentum viscosity on/off flag */
(PID.TID 0000.0001)                   T
(PID.TID 0000.0001)     ;
(PID.TID 0000.0001) momImplVertAdv= /* Momentum implicit vert. advection on/off*/
(PID.TID 0000.0001)                   F
(PID.TID 0000.0001)     ;
(PID.TID 0000.0001) implicitViscosity = /* Implicit viscosity on/off flag */
(PID.TID 0000.0001)                   T
(PID.TID 0000.0001)     ;
(PID.TID 0000.0001) selectImplicitDrag= /* Implicit bot Drag options (0,1,2)*/
(PID.TID 0000.0001)                       0
(PID.TID 0000.0001)     0= Expl. ; 1= Impl. on provis. Vel ; 2= Fully Impl (with surf.P)
(PID.TID 0000.0001)     ;
(PID.TID 0000.0001) metricTerms =  /* metric-Terms on/off flag */
(PID.TID 0000.0001)                   T
(PID.TID 0000.0001)     ;
(PID.TID 0000.0001) useNHMTerms = /* Non-Hydrostatic Metric-Terms on/off */
(PID.TID 0000.0001)                   F
(PID.TID 0000.0001)     ;
(PID.TID 0000.0001) selectCoriMap = /* Coriolis Map options (0,1,2,3)*/
(PID.TID 0000.0001)                       2
(PID.TID 0000.0001)     0= f-Plane ; 1= Beta-Plane ; 2= Spherical ; 3= read from file
(PID.TID 0000.0001)     ;
(PID.TID 0000.0001) use3dCoriolis = /* 3-D Coriolis on/off flag */
(PID.TID 0000.0001)                   F
(PID.TID 0000.0001)     ;
(PID.TID 0000.0001) useCoriolis =  /* Coriolis on/off flag */
(PID.TID 0000.0001)                   T
(PID.TID 0000.0001)     ;
(PID.TID 0000.0001) useCDscheme =  /* CD scheme on/off flag */
(PID.TID 0000.0001)                   F
(PID.TID 0000.0001)     ;
(PID.TID 0000.0001) useEnergyConservingCoriolis= /* Flx-Form Coriolis scheme flag */
(PID.TID 0000.0001)                   F
(PID.TID 0000.0001)     ;
(PID.TID 0000.0001) useJamartWetPoints= /* Coriolis WetPoints method flag */
(PID.TID 0000.0001)                   F
(PID.TID 0000.0001)     ;
(PID.TID 0000.0001) useJamartMomAdv= /* V.I Non-linear terms Jamart flag */
(PID.TID 0000.0001)                   F
(PID.TID 0000.0001)     ;
(PID.TID 0000.0001) useAbsVorticity= /* V.I Works with f+zeta in Coriolis */
(PID.TID 0000.0001)                   F
(PID.TID 0000.0001)     ;
(PID.TID 0000.0001) selectVortScheme= /* V.I Scheme selector for Vorticity-Term */
(PID.TID 0000.0001)                       0
(PID.TID 0000.0001)    = 0 : enstrophy (Shallow-Water Eq.) conserving scheme by Sadourny, JAS 75
(PID.TID 0000.0001)    = 1 : same as 0 with modified hFac
(PID.TID 0000.0001)    = 2 : energy conserving scheme (used by Sadourny in JAS 75 paper)
(PID.TID 0000.0001)    = 3 : energy (general) and enstrophy (2D, nonDiv.) conserving scheme
(PID.TID 0000.0001)          from Sadourny (Burridge & Haseler, ECMWF Rep.4, 1977)
(PID.TID 0000.0001)     ;
(PID.TID 0000.0001) upwindVorticity= /* V.I Upwind bias vorticity flag */
(PID.TID 0000.0001)                   F
(PID.TID 0000.0001)     ;
(PID.TID 0000.0001) highOrderVorticity= /* V.I High order vort. advect. flag */
(PID.TID 0000.0001)                   T
(PID.TID 0000.0001)     ;
(PID.TID 0000.0001) upwindShear= /* V.I Upwind vertical Shear advection flag */
(PID.TID 0000.0001)                   F
(PID.TID 0000.0001)     ;
(PID.TID 0000.0001) selectKEscheme= /* V.I Kinetic Energy scheme selector */
(PID.TID 0000.0001)                       0
(PID.TID 0000.0001)     ;
(PID.TID 0000.0001) momForcing =  /* Momentum forcing on/off flag */
(PID.TID 0000.0001)                   T
(PID.TID 0000.0001)     ;
(PID.TID 0000.0001) momTidalForcing = /* Momentum Tidal forcing on/off flag */
(PID.TID 0000.0001)                   T
(PID.TID 0000.0001)     ;
(PID.TID 0000.0001) momPressureForcing =  /* Momentum pressure term on/off flag */
(PID.TID 0000.0001)                   T
(PID.TID 0000.0001)     ;
(PID.TID 0000.0001) implicitIntGravWave= /* Implicit Internal Gravity Wave flag */
(PID.TID 0000.0001)                   F
(PID.TID 0000.0001)     ;
(PID.TID 0000.0001) staggerTimeStep =    /* Stagger time stepping on/off flag */
(PID.TID 0000.0001)                   T
(PID.TID 0000.0001)     ;
(PID.TID 0000.0001) doResetHFactors = /* reset thickness factors @ each time-step */
(PID.TID 0000.0001)                   F
(PID.TID 0000.0001)     ;
(PID.TID 0000.0001) multiDimAdvection =  /* enable/disable Multi-Dim Advection */
(PID.TID 0000.0001)                   T
(PID.TID 0000.0001)     ;
(PID.TID 0000.0001) useMultiDimAdvec =   /* Multi-Dim Advection is/is-not used */
(PID.TID 0000.0001)                   T
(PID.TID 0000.0001)     ;
(PID.TID 0000.0001) implicitDiffusion = /* Implicit Diffusion on/off flag */
(PID.TID 0000.0001)                   T
(PID.TID 0000.0001)     ;
(PID.TID 0000.0001) tempStepping =  /* Temperature equation on/off flag */
(PID.TID 0000.0001)                   T
(PID.TID 0000.0001)     ;
(PID.TID 0000.0001) tempAdvection = /* Temperature advection on/off flag */
(PID.TID 0000.0001)                   T
(PID.TID 0000.0001)     ;
(PID.TID 0000.0001) tempImplVertAdv = /* Temp. implicit vert. advection on/off */
(PID.TID 0000.0001)                   F
(PID.TID 0000.0001)     ;
(PID.TID 0000.0001) tempForcing  =  /* Temperature forcing on/off flag */
(PID.TID 0000.0001)                   T
(PID.TID 0000.0001)     ;
(PID.TID 0000.0001) doThetaClimRelax = /* apply SST relaxation on/off flag */
(PID.TID 0000.0001)                   F
(PID.TID 0000.0001)     ;
(PID.TID 0000.0001) tempIsActiveTr = /* Temp. is a dynamically Active Tracer */
(PID.TID 0000.0001)                   T
(PID.TID 0000.0001)     ;
(PID.TID 0000.0001) saltStepping =  /* Salinity equation on/off flag */
(PID.TID 0000.0001)                   T
(PID.TID 0000.0001)     ;
(PID.TID 0000.0001) saltAdvection = /* Salinity advection on/off flag */
(PID.TID 0000.0001)                   T
(PID.TID 0000.0001)     ;
(PID.TID 0000.0001) saltImplVertAdv = /* Sali. implicit vert. advection on/off */
(PID.TID 0000.0001)                   F
(PID.TID 0000.0001)     ;
(PID.TID 0000.0001) saltForcing  =  /* Salinity forcing on/off flag */
(PID.TID 0000.0001)                   T
(PID.TID 0000.0001)     ;
(PID.TID 0000.0001) doSaltClimRelax = /* apply SSS relaxation on/off flag */
(PID.TID 0000.0001)                   F
(PID.TID 0000.0001)     ;
(PID.TID 0000.0001) saltIsActiveTr = /* Salt  is a dynamically Active Tracer */
(PID.TID 0000.0001)                   T
(PID.TID 0000.0001)     ;
(PID.TID 0000.0001)  readBinaryPrec = /* Precision used for reading binary files */
(PID.TID 0000.0001)                      32
(PID.TID 0000.0001)     ;
(PID.TID 0000.0001) writeBinaryPrec = /* Precision used for writing binary files */
(PID.TID 0000.0001)                      32
(PID.TID 0000.0001)     ;
(PID.TID 0000.0001)  rwSuffixType =   /* select format of mds file suffix */
(PID.TID 0000.0001)                       0
(PID.TID 0000.0001)    = 0 : myIter (I10.10) ;   = 1 : 100*myTime (100th sec) ;
(PID.TID 0000.0001)    = 2 : myTime (seconds);   = 3 : myTime/360 (10th of hr);
(PID.TID 0000.0001)    = 4 : myTime/3600 (hours)
(PID.TID 0000.0001)     ;
(PID.TID 0000.0001)  globalFiles = /* write "global" (=not per tile) files */
(PID.TID 0000.0001)                   T
(PID.TID 0000.0001)     ;
(PID.TID 0000.0001)  useSingleCpuIO = /* only master MPI process does I/O */
(PID.TID 0000.0001)                   T
(PID.TID 0000.0001)     ;
(PID.TID 0000.0001)  useSingleCpuInput = /* only master process reads input */
(PID.TID 0000.0001)                   T
(PID.TID 0000.0001)     ;
(PID.TID 0000.0001) /* debLev[*]  : level of debug & auxiliary message printing */
(PID.TID 0000.0001) debLevZero =  0 ; /* level of disabled aux. msg printing */
(PID.TID 0000.0001)    debLevA =  1 ; /* level of minimum  aux. msg printing */
(PID.TID 0000.0001)    debLevB =  2 ; /* level of low aux. print (report read-file opening)*/
(PID.TID 0000.0001)    debLevC =  3 ; /* level of moderate debug prt (most pkgs debug msg) */
(PID.TID 0000.0001)    debLevD =  4 ; /* level of enhanced debug prt (add DEBUG_STATS prt) */
(PID.TID 0000.0001)    debLevE =  5 ; /* level of extensive debug printing */
(PID.TID 0000.0001) debugLevel =  /* select debug printing level */
(PID.TID 0000.0001)                       2
(PID.TID 0000.0001)     ;
(PID.TID 0000.0001)  plotLevel =  /* select PLOT_FIELD printing level */
(PID.TID 0000.0001)                       2
(PID.TID 0000.0001)     ;
(PID.TID 0000.0001) //
(PID.TID 0000.0001) // Elliptic solver(s) paramters ( PARM02 in namelist )
(PID.TID 0000.0001) //
(PID.TID 0000.0001) cg2dMaxIters =   /* Upper limit on 2d con. grad iterations  */
(PID.TID 0000.0001)                    1000
(PID.TID 0000.0001)     ;
(PID.TID 0000.0001) cg2dChkResFreq =   /* 2d con. grad convergence test frequency */
(PID.TID 0000.0001)                       1
(PID.TID 0000.0001)     ;
(PID.TID 0000.0001) cg2dUseMinResSol= /* use cg2d last-iter(=0) / min-resid.(=1) solution */
(PID.TID 0000.0001)                       0
(PID.TID 0000.0001)     ;
(PID.TID 0000.0001) cg2dTargetResidual =   /* 2d con. grad target residual  */
(PID.TID 0000.0001)                 1.000000000000000E-07
(PID.TID 0000.0001)     ;
(PID.TID 0000.0001) cg2dTargetResWunit =   /* CG2d target residual [W units] */
(PID.TID 0000.0001)                 1.000000000000000E-18
(PID.TID 0000.0001)     ;
(PID.TID 0000.0001) cg2dPreCondFreq =   /* Freq. for updating cg2d preconditioner */
(PID.TID 0000.0001)                       1
(PID.TID 0000.0001)     ;
(PID.TID 0000.0001) useSRCGSolver =  /* use single reduction CG solver(s) */
(PID.TID 0000.0001)                   F
(PID.TID 0000.0001)     ;
(PID.TID 0000.0001) printResidualFreq = /* Freq. for printing CG residual */
(PID.TID 0000.0001)                       0
(PID.TID 0000.0001)     ;
(PID.TID 0000.0001) //
(PID.TID 0000.0001) // Time stepping paramters ( PARM03 in namelist )
(PID.TID 0000.0001) //
(PID.TID 0000.0001) deltaTMom =   /* Momentum equation timestep ( s ) */
(PID.TID 0000.0001)                 2.400000000000000E+02
(PID.TID 0000.0001)     ;
(PID.TID 0000.0001) deltaTFreeSurf = /* FreeSurface equation timestep ( s ) */
(PID.TID 0000.0001)                 2.400000000000000E+02
(PID.TID 0000.0001)     ;
(PID.TID 0000.0001) dTtracerLev =  /* Tracer equation timestep ( s ) */
(PID.TID 0000.0001)   100 @  2.400000000000000E+02              /* K =  1:100 */
(PID.TID 0000.0001)     ;
(PID.TID 0000.0001) deltaTClock  =   /* Model clock timestep ( s ) */
(PID.TID 0000.0001)                 2.400000000000000E+02
(PID.TID 0000.0001)     ;
(PID.TID 0000.0001) cAdjFreq =   /* Convective adjustment interval ( s ) */
(PID.TID 0000.0001)                 0.000000000000000E+00
(PID.TID 0000.0001)     ;
(PID.TID 0000.0001) momForcingOutAB = /* =1: take Momentum Forcing out of Adams-Bash. stepping */
(PID.TID 0000.0001)                       1
(PID.TID 0000.0001)     ;
(PID.TID 0000.0001) tracForcingOutAB = /* =1: take T,S,pTr Forcing out of Adams-Bash. stepping */
(PID.TID 0000.0001)                       1
(PID.TID 0000.0001)     ;
(PID.TID 0000.0001) momDissip_In_AB = /* put Dissipation Tendency in Adams-Bash. stepping */
(PID.TID 0000.0001)                   F
(PID.TID 0000.0001)     ;
(PID.TID 0000.0001) doAB_onGtGs = /* apply AB on Tendencies (rather than on T,S)*/
(PID.TID 0000.0001)                   T
(PID.TID 0000.0001)     ;
(PID.TID 0000.0001) abEps =   /* Adams-Bashforth-2 stabilizing weight */
(PID.TID 0000.0001)                 1.000000000000000E-01
(PID.TID 0000.0001)     ;
(PID.TID 0000.0001) applyExchUV_early = /* Apply EXCH to U,V earlier in time-step */
(PID.TID 0000.0001)                   F
(PID.TID 0000.0001)     ;
(PID.TID 0000.0001) pickupStrictlyMatch= /* stop if pickup do not strictly match */
(PID.TID 0000.0001)                   F
(PID.TID 0000.0001)     ;
(PID.TID 0000.0001) nIter0   =   /* Run starting timestep number */
(PID.TID 0000.0001)                       0
(PID.TID 0000.0001)     ;
(PID.TID 0000.0001) nTimeSteps = /* Number of timesteps */
(PID.TID 0000.0001)                      15
(PID.TID 0000.0001)     ;
(PID.TID 0000.0001) nEndIter =   /* Run ending timestep number */
(PID.TID 0000.0001)                      15
(PID.TID 0000.0001)     ;
(PID.TID 0000.0001) baseTime =   /* Model base time ( s ) */
(PID.TID 0000.0001)                 0.000000000000000E+00
(PID.TID 0000.0001)     ;
(PID.TID 0000.0001) startTime =  /* Run start time ( s ) */
(PID.TID 0000.0001)                 0.000000000000000E+00
(PID.TID 0000.0001)     ;
(PID.TID 0000.0001) endTime  =   /* Integration ending time ( s ) */
(PID.TID 0000.0001)                 3.600000000000000E+03
(PID.TID 0000.0001)     ;
(PID.TID 0000.0001) pChkPtFreq = /* Permanent restart/pickup file interval ( s ) */
(PID.TID 0000.0001)                 8.640000000000000E+05
(PID.TID 0000.0001)     ;
(PID.TID 0000.0001) chkPtFreq  = /* Rolling restart/pickup file interval ( s ) */
(PID.TID 0000.0001)                 0.000000000000000E+00
(PID.TID 0000.0001)     ;
(PID.TID 0000.0001) pickup_write_mdsio =   /* Model IO flag. */
(PID.TID 0000.0001)                   T
(PID.TID 0000.0001)     ;
(PID.TID 0000.0001) pickup_read_mdsio =   /* Model IO flag. */
(PID.TID 0000.0001)                   T
(PID.TID 0000.0001)     ;
(PID.TID 0000.0001) writePickupAtEnd =   /* Model IO flag. */
(PID.TID 0000.0001)                   T
(PID.TID 0000.0001)     ;
(PID.TID 0000.0001) dumpFreq =   /* Model state write out interval ( s ). */
(PID.TID 0000.0001)                 0.000000000000000E+00
(PID.TID 0000.0001)     ;
(PID.TID 0000.0001) dumpInitAndLast= /* write out Initial & Last iter. model state */
(PID.TID 0000.0001)                   F
(PID.TID 0000.0001)     ;
(PID.TID 0000.0001) snapshot_mdsio =   /* Model IO flag. */
(PID.TID 0000.0001)                   T
(PID.TID 0000.0001)     ;
(PID.TID 0000.0001) monitorFreq =   /* Monitor output interval ( s ). */
(PID.TID 0000.0001)                 2.400000000000000E+02
(PID.TID 0000.0001)     ;
(PID.TID 0000.0001) monitorSelect = /* select group of variables to monitor */
(PID.TID 0000.0001)                       3
(PID.TID 0000.0001)     ;
(PID.TID 0000.0001) monitor_stdio =   /* Model IO flag. */
(PID.TID 0000.0001)                   T
(PID.TID 0000.0001)     ;
(PID.TID 0000.0001) externForcingPeriod =   /* forcing period (s) */
(PID.TID 0000.0001)                 0.000000000000000E+00
(PID.TID 0000.0001)     ;
(PID.TID 0000.0001) externForcingCycle =   /* period of the cyle (s). */
(PID.TID 0000.0001)                 0.000000000000000E+00
(PID.TID 0000.0001)     ;
(PID.TID 0000.0001) tauThetaClimRelax =   /* relaxation time scale (s) */
(PID.TID 0000.0001)                 0.000000000000000E+00
(PID.TID 0000.0001)     ;
(PID.TID 0000.0001) tauSaltClimRelax =   /* relaxation time scale (s) */
(PID.TID 0000.0001)                 0.000000000000000E+00
(PID.TID 0000.0001)     ;
(PID.TID 0000.0001) latBandClimRelax =   /* max. Lat. where relaxation */
(PID.TID 0000.0001)                 1.800000000000000E+02
(PID.TID 0000.0001)     ;
(PID.TID 0000.0001) //
(PID.TID 0000.0001) // Gridding paramters ( PARM04 in namelist )
(PID.TID 0000.0001) //
(PID.TID 0000.0001) usingCartesianGrid = /* Cartesian coordinates flag ( True/False ) */
(PID.TID 0000.0001)                   F
(PID.TID 0000.0001)     ;
(PID.TID 0000.0001) usingCylindricalGrid = /* Cylindrical coordinates flag ( True/False ) */
(PID.TID 0000.0001)                   F
(PID.TID 0000.0001)     ;
(PID.TID 0000.0001) usingSphericalPolarGrid = /* Spherical coordinates flag ( True/False ) */
(PID.TID 0000.0001)                   T
(PID.TID 0000.0001)     ;
(PID.TID 0000.0001) usingCurvilinearGrid = /* Curvilinear coordinates flag ( True/False ) */
(PID.TID 0000.0001)                   F
(PID.TID 0000.0001)     ;
(PID.TID 0000.0001) useMin4hFacEdges = /* set hFacW,S as minimum of adjacent hFacC factor */
(PID.TID 0000.0001)                   F
(PID.TID 0000.0001)     ;
(PID.TID 0000.0001) interViscAr_pCell = /* account for partial-cell in interior vert. viscosity */
(PID.TID 0000.0001)                   F
(PID.TID 0000.0001)     ;
(PID.TID 0000.0001) interDiffKr_pCell = /* account for partial-cell in interior vert. diffusion */
(PID.TID 0000.0001)                   F
(PID.TID 0000.0001)     ;
(PID.TID 0000.0001) pCellMix_select = /* option to enhance mixing near surface & bottom */
(PID.TID 0000.0001)                       0
(PID.TID 0000.0001)     ;
(PID.TID 0000.0001) selectSigmaCoord = /* Hybrid-Sigma Vert. Coordinate option */
(PID.TID 0000.0001)                       0
(PID.TID 0000.0001)     ;
(PID.TID 0000.0001) rSigmaBnd = /* r/sigma transition ( units of r ==  m ) */
(PID.TID 0000.0001)                 1.234567000000000E+05
(PID.TID 0000.0001)     ;
(PID.TID 0000.0001) rkSign =   /* index orientation relative to vertical coordinate */
(PID.TID 0000.0001)                -1.000000000000000E+00
(PID.TID 0000.0001)     ;
(PID.TID 0000.0001) gravitySign = /* gravity orientation relative to vertical coordinate */
(PID.TID 0000.0001)                -1.000000000000000E+00
(PID.TID 0000.0001)     ;
(PID.TID 0000.0001) seaLev_Z =  /* reference height of sea-level [m] */
(PID.TID 0000.0001)                 0.000000000000000E+00
(PID.TID 0000.0001)     ;
(PID.TID 0000.0001) top_Pres =  /* reference pressure at the top [Pa] */
(PID.TID 0000.0001)                 0.000000000000000E+00
(PID.TID 0000.0001)     ;
(PID.TID 0000.0001) mass2rUnit = /* convert mass per unit area [kg/m2] to r-units [m] */
(PID.TID 0000.0001)                 9.718172983479105E-04
(PID.TID 0000.0001)     ;
(PID.TID 0000.0001) rUnit2mass = /* convert r-units [m] to mass per unit area [kg/m2] */
(PID.TID 0000.0001)                 1.029000000000000E+03
(PID.TID 0000.0001)     ;
(PID.TID 0000.0001) drC =   /* C spacing ( units of r ) */
(PID.TID 0000.0001)                 2.500000000000000E+00,      /* K =  1 */
(PID.TID 0000.0001)    14 @  5.000000000000000E+00,             /* K =  2: 15 */
(PID.TID 0000.0001)                 5.005000000000000E+00,      /* K = 16 */
(PID.TID 0000.0001)                 5.010000000000000E+00,      /* K = 17 */
(PID.TID 0000.0001)                 5.015000000000000E+00,      /* K = 18 */
(PID.TID 0000.0001)                 5.029999999999999E+00,      /* K = 19 */
(PID.TID 0000.0001)                 5.055000000000000E+00,      /* K = 20 */
(PID.TID 0000.0001)                 5.095000000000001E+00,      /* K = 21 */
(PID.TID 0000.0001)                 5.160000000000000E+00,      /* K = 22 */
(PID.TID 0000.0001)                 5.255000000000000E+00,      /* K = 23 */
(PID.TID 0000.0001)                 5.400000000000000E+00,      /* K = 24 */
(PID.TID 0000.0001)                 5.605000000000000E+00,      /* K = 25 */
(PID.TID 0000.0001)                 5.880000000000000E+00,      /* K = 26 */
(PID.TID 0000.0001)                 6.245000000000000E+00,      /* K = 27 */
(PID.TID 0000.0001)                 6.710000000000000E+00,      /* K = 28 */
(PID.TID 0000.0001)                 7.295000000000000E+00,      /* K = 29 */
(PID.TID 0000.0001)                 8.020000000000000E+00,      /* K = 30 */
(PID.TID 0000.0001)                 8.890000000000001E+00,      /* K = 31 */
(PID.TID 0000.0001)                 9.910000000000000E+00,      /* K = 32 */
(PID.TID 0000.0001)                 1.109000000000000E+01,      /* K = 33 */
(PID.TID 0000.0001)                 1.242500000000000E+01,      /* K = 34 */
(PID.TID 0000.0001)                 1.391500000000000E+01,      /* K = 35 */
(PID.TID 0000.0001)                 1.555000000000000E+01,      /* K = 36 */
(PID.TID 0000.0001)                 1.732000000000000E+01,      /* K = 37 */
(PID.TID 0000.0001)                 1.921000000000000E+01,      /* K = 38 */
(PID.TID 0000.0001)                 2.119500000000000E+01,      /* K = 39 */
(PID.TID 0000.0001)                 2.325000000000000E+01,      /* K = 40 */
(PID.TID 0000.0001)                 2.536000000000000E+01,      /* K = 41 */
(PID.TID 0000.0001)                 2.750000000000000E+01,      /* K = 42 */
(PID.TID 0000.0001)                 2.964000000000000E+01,      /* K = 43 */
(PID.TID 0000.0001)                 3.175000000000000E+01,      /* K = 44 */
(PID.TID 0000.0001)                 3.380500000000000E+01,      /* K = 45 */
(PID.TID 0000.0001)                 3.579000000000000E+01,      /* K = 46 */
(PID.TID 0000.0001)                 3.768000000000000E+01,      /* K = 47 */
(PID.TID 0000.0001)                 3.945000000000000E+01,      /* K = 48 */
(PID.TID 0000.0001)                 4.108499999999999E+01,      /* K = 49 */
(PID.TID 0000.0001)                 4.257500000000000E+01,      /* K = 50 */
(PID.TID 0000.0001)                 4.391000000000000E+01,      /* K = 51 */
(PID.TID 0000.0001)                 4.509000000000000E+01,      /* K = 52 */
(PID.TID 0000.0001)                 4.611000000000000E+01,      /* K = 53 */
(PID.TID 0000.0001)                 4.698000000000000E+01,      /* K = 54 */
(PID.TID 0000.0001)                 4.770500000000000E+01,      /* K = 55 */
(PID.TID 0000.0001)                 4.829000000000000E+01,      /* K = 56 */
(PID.TID 0000.0001)                 4.875500000000000E+01,      /* K = 57 */
(PID.TID 0000.0001)                 4.912500000000000E+01,      /* K = 58 */
(PID.TID 0000.0001)                 4.941000000000000E+01,      /* K = 59 */
(PID.TID 0000.0001)                 4.962500000000000E+01,      /* K = 60 */
(PID.TID 0000.0001)                 4.981000000000000E+01,      /* K = 61 */
(PID.TID 0000.0001)                 5.000500000000000E+01,      /* K = 62 */
(PID.TID 0000.0001)                 5.026000000000000E+01,      /* K = 63 */
(PID.TID 0000.0001)                 5.066500000000000E+01,      /* K = 64 */
(PID.TID 0000.0001)                 5.130500000000000E+01,      /* K = 65 */
(PID.TID 0000.0001)                 5.228000000000000E+01,      /* K = 66 */
(PID.TID 0000.0001)                 5.370500000000000E+01,      /* K = 67 */
(PID.TID 0000.0001)                 5.566500000000000E+01,      /* K = 68 */
(PID.TID 0000.0001)                 5.823000000000000E+01,      /* K = 69 */
(PID.TID 0000.0001)                 6.141500000000000E+01,      /* K = 70 */
(PID.TID 0000.0001)                 6.521000000000001E+01,      /* K = 71 */
(PID.TID 0000.0001)                 6.954500000000000E+01,      /* K = 72 */
(PID.TID 0000.0001)                 7.433000000000000E+01,      /* K = 73 */
(PID.TID 0000.0001)                 7.947000000000000E+01,      /* K = 74 */
(PID.TID 0000.0001)                 8.486000000000000E+01,      /* K = 75 */
(PID.TID 0000.0001)                 9.041499999999999E+01,      /* K = 76 */
(PID.TID 0000.0001)                 9.606500000000000E+01,      /* K = 77 */
(PID.TID 0000.0001)                 1.017750000000000E+02,      /* K = 78 */
(PID.TID 0000.0001)                 1.075100000000000E+02,      /* K = 79 */
(PID.TID 0000.0001)                 1.132500000000000E+02,      /* K = 80 */
(PID.TID 0000.0001)                 1.189950000000000E+02,      /* K = 81 */
(PID.TID 0000.0001)                 1.247500000000000E+02,      /* K = 82 */
(PID.TID 0000.0001)                 1.305050000000000E+02,      /* K = 83 */
(PID.TID 0000.0001)                 1.362500000000000E+02,      /* K = 84 */
(PID.TID 0000.0001)                 1.419950000000000E+02,      /* K = 85 */
(PID.TID 0000.0001)                 1.477500000000000E+02,      /* K = 86 */
(PID.TID 0000.0001)                 1.535050000000000E+02,      /* K = 87 */
(PID.TID 0000.0001)                 1.592500000000000E+02,      /* K = 88 */
(PID.TID 0000.0001)                 1.649950000000000E+02,      /* K = 89 */
(PID.TID 0000.0001)                 1.707500000000000E+02,      /* K = 90 */
(PID.TID 0000.0001)                 1.765050000000000E+02,      /* K = 91 */
(PID.TID 0000.0001)                 1.822500000000000E+02,      /* K = 92 */
(PID.TID 0000.0001)                 1.879950000000000E+02,      /* K = 93 */
(PID.TID 0000.0001)                 1.937500000000000E+02,      /* K = 94 */
(PID.TID 0000.0001)                 1.995050000000000E+02,      /* K = 95 */
(PID.TID 0000.0001)                 2.052500000000000E+02,      /* K = 96 */
(PID.TID 0000.0001)                 2.109950000000000E+02,      /* K = 97 */
(PID.TID 0000.0001)                 2.167500000000000E+02,      /* K = 98 */
(PID.TID 0000.0001)                 2.225050000000000E+02,      /* K = 99 */
(PID.TID 0000.0001)                 2.282500000000000E+02,      /* K =100 */
(PID.TID 0000.0001)                 1.155600000000000E+02       /* K =101 */
(PID.TID 0000.0001)     ;
(PID.TID 0000.0001) drF =   /* W spacing ( units of r ) */
(PID.TID 0000.0001)    15 @  5.000000000000000E+00,             /* K =  1: 15 */
(PID.TID 0000.0001)     2 @  5.010000000000000E+00,             /* K = 16: 17 */
(PID.TID 0000.0001)                 5.020000000000000E+00,      /* K = 18 */
(PID.TID 0000.0001)                 5.040000000000000E+00,      /* K = 19 */
(PID.TID 0000.0001)                 5.070000000000000E+00,      /* K = 20 */
(PID.TID 0000.0001)                 5.120000000000000E+00,      /* K = 21 */
(PID.TID 0000.0001)                 5.200000000000000E+00,      /* K = 22 */
(PID.TID 0000.0001)                 5.310000000000000E+00,      /* K = 23 */
(PID.TID 0000.0001)                 5.490000000000000E+00,      /* K = 24 */
(PID.TID 0000.0001)                 5.720000000000000E+00,      /* K = 25 */
(PID.TID 0000.0001)                 6.040000000000000E+00,      /* K = 26 */
(PID.TID 0000.0001)                 6.450000000000000E+00,      /* K = 27 */
(PID.TID 0000.0001)                 6.970000000000000E+00,      /* K = 28 */
(PID.TID 0000.0001)                 7.620000000000000E+00,      /* K = 29 */
(PID.TID 0000.0001)                 8.420000000000000E+00,      /* K = 30 */
(PID.TID 0000.0001)                 9.359999999999999E+00,      /* K = 31 */
(PID.TID 0000.0001)                 1.046000000000000E+01,      /* K = 32 */
(PID.TID 0000.0001)                 1.172000000000000E+01,      /* K = 33 */
(PID.TID 0000.0001)                 1.313000000000000E+01,      /* K = 34 */
(PID.TID 0000.0001)                 1.470000000000000E+01,      /* K = 35 */
(PID.TID 0000.0001)                 1.640000000000000E+01,      /* K = 36 */
(PID.TID 0000.0001)                 1.824000000000000E+01,      /* K = 37 */
(PID.TID 0000.0001)                 2.018000000000000E+01,      /* K = 38 */
(PID.TID 0000.0001)                 2.221000000000000E+01,      /* K = 39 */
(PID.TID 0000.0001)                 2.429000000000000E+01,      /* K = 40 */
(PID.TID 0000.0001)                 2.643000000000000E+01,      /* K = 41 */
(PID.TID 0000.0001)                 2.857000000000000E+01,      /* K = 42 */
(PID.TID 0000.0001)                 3.071000000000000E+01,      /* K = 43 */
(PID.TID 0000.0001)                 3.279000000000000E+01,      /* K = 44 */
(PID.TID 0000.0001)                 3.482000000000000E+01,      /* K = 45 */
(PID.TID 0000.0001)                 3.676000000000000E+01,      /* K = 46 */
(PID.TID 0000.0001)                 3.860000000000000E+01,      /* K = 47 */
(PID.TID 0000.0001)                 4.030000000000000E+01,      /* K = 48 */
(PID.TID 0000.0001)                 4.187000000000000E+01,      /* K = 49 */
(PID.TID 0000.0001)                 4.328000000000000E+01,      /* K = 50 */
(PID.TID 0000.0001)                 4.454000000000000E+01,      /* K = 51 */
(PID.TID 0000.0001)                 4.564000000000000E+01,      /* K = 52 */
(PID.TID 0000.0001)                 4.658000000000000E+01,      /* K = 53 */
(PID.TID 0000.0001)                 4.738000000000000E+01,      /* K = 54 */
(PID.TID 0000.0001)                 4.803000000000000E+01,      /* K = 55 */
(PID.TID 0000.0001)                 4.855000000000000E+01,      /* K = 56 */
(PID.TID 0000.0001)                 4.896000000000000E+01,      /* K = 57 */
(PID.TID 0000.0001)                 4.929000000000000E+01,      /* K = 58 */
(PID.TID 0000.0001)                 4.953000000000000E+01,      /* K = 59 */
(PID.TID 0000.0001)                 4.972000000000000E+01,      /* K = 60 */
(PID.TID 0000.0001)                 4.990000000000000E+01,      /* K = 61 */
(PID.TID 0000.0001)                 5.011000000000000E+01,      /* K = 62 */
(PID.TID 0000.0001)                 5.041000000000000E+01,      /* K = 63 */
(PID.TID 0000.0001)                 5.092000000000000E+01,      /* K = 64 */
(PID.TID 0000.0001)                 5.169000000000000E+01,      /* K = 65 */
(PID.TID 0000.0001)                 5.287000000000000E+01,      /* K = 66 */
(PID.TID 0000.0001)                 5.454000000000000E+01,      /* K = 67 */
(PID.TID 0000.0001)                 5.679000000000000E+01,      /* K = 68 */
(PID.TID 0000.0001)                 5.967000000000000E+01,      /* K = 69 */
(PID.TID 0000.0001)                 6.316000000000000E+01,      /* K = 70 */
(PID.TID 0000.0001)                 6.726000000000001E+01,      /* K = 71 */
(PID.TID 0000.0001)                 7.183000000000000E+01,      /* K = 72 */
(PID.TID 0000.0001)                 7.683000000000000E+01,      /* K = 73 */
(PID.TID 0000.0001)                 8.211000000000000E+01,      /* K = 74 */
(PID.TID 0000.0001)                 8.761000000000000E+01,      /* K = 75 */
(PID.TID 0000.0001)                 9.322000000000000E+01,      /* K = 76 */
(PID.TID 0000.0001)                 9.891000000000000E+01,      /* K = 77 */
(PID.TID 0000.0001)                 1.046400000000000E+02,      /* K = 78 */
(PID.TID 0000.0001)                 1.103800000000000E+02,      /* K = 79 */
(PID.TID 0000.0001)                 1.161200000000000E+02,      /* K = 80 */
(PID.TID 0000.0001)                 1.218700000000000E+02,      /* K = 81 */
(PID.TID 0000.0001)                 1.276300000000000E+02,      /* K = 82 */
(PID.TID 0000.0001)                 1.333800000000000E+02,      /* K = 83 */
(PID.TID 0000.0001)                 1.391200000000000E+02,      /* K = 84 */
(PID.TID 0000.0001)                 1.448700000000000E+02,      /* K = 85 */
(PID.TID 0000.0001)                 1.506300000000000E+02,      /* K = 86 */
(PID.TID 0000.0001)                 1.563800000000000E+02,      /* K = 87 */
(PID.TID 0000.0001)                 1.621200000000000E+02,      /* K = 88 */
(PID.TID 0000.0001)                 1.678700000000000E+02,      /* K = 89 */
(PID.TID 0000.0001)                 1.736300000000000E+02,      /* K = 90 */
(PID.TID 0000.0001)                 1.793800000000000E+02,      /* K = 91 */
(PID.TID 0000.0001)                 1.851200000000000E+02,      /* K = 92 */
(PID.TID 0000.0001)                 1.908700000000000E+02,      /* K = 93 */
(PID.TID 0000.0001)                 1.966300000000000E+02,      /* K = 94 */
(PID.TID 0000.0001)                 2.023800000000000E+02,      /* K = 95 */
(PID.TID 0000.0001)                 2.081200000000000E+02,      /* K = 96 */
(PID.TID 0000.0001)                 2.138700000000000E+02,      /* K = 97 */
(PID.TID 0000.0001)                 2.196300000000000E+02,      /* K = 98 */
(PID.TID 0000.0001)                 2.253800000000000E+02,      /* K = 99 */
(PID.TID 0000.0001)                 2.311200000000000E+02       /* K =100 */
(PID.TID 0000.0001)     ;
(PID.TID 0000.0001) delX = /* U spacing ( m - cartesian, degrees - spherical ) */
(PID.TID 0000.0001)  1815 @  4.166666666666700E-02              /* I =   1:1815 */
(PID.TID 0000.0001)     ;
(PID.TID 0000.0001) delY = /* V spacing ( m - cartesian, degrees - spherical ) */
(PID.TID 0000.0001)                 3.417015075683594E-02,      /* J =  1 */
(PID.TID 0000.0001)                 3.416061401367188E-02,      /* J =  2 */
(PID.TID 0000.0001)                 3.415107727050781E-02,      /* J =  3 */
(PID.TID 0000.0001)      . . .
(PID.TID 0000.0001)                 3.279495239257812E-02,      /* J =131 */
(PID.TID 0000.0001)                 3.278350830078125E-02,      /* J =132 */
(PID.TID 0000.0001)                 3.277397155761719E-02,      /* J =133 */
(PID.TID 0000.0001)                 3.276252746582031E-02,      /* J =134 */
(PID.TID 0000.0001)                 3.275299072265625E-02,      /* J =135 */
(PID.TID 0000.0001)                 3.273963928222656E-02,      /* J =136 */
(PID.TID 0000.0001)      . . .
(PID.TID 0000.0001)                 3.129959106445312E-02,      /* J =264 */
(PID.TID 0000.0001)                 3.128814697265625E-02,      /* J =265 */
(PID.TID 0000.0001)                 3.127288818359375E-02,      /* J =266 */
(PID.TID 0000.0001)                 3.126525878906250E-02,      /* J =267 */
(PID.TID 0000.0001)                 3.125000000000000E-02,      /* J =268 */
(PID.TID 0000.0001)                 3.124237060546875E-02,      /* J =269 */
(PID.TID 0000.0001)      . . .
(PID.TID 0000.0001)                 2.974700927734375E-02,      /* J =397 */
(PID.TID 0000.0001)                 2.973175048828125E-02,      /* J =398 */
(PID.TID 0000.0001)                 2.971649169921875E-02,      /* J =399 */
(PID.TID 0000.0001)                 2.970886230468750E-02,      /* J =400 */
(PID.TID 0000.0001)                 2.969741821289062E-02,      /* J =401 */
(PID.TID 0000.0001)                 2.968597412109375E-02,      /* J =402 */
(PID.TID 0000.0001)      . . .
(PID.TID 0000.0001)                 2.816009521484375E-02,      /* J =530 */
(PID.TID 0000.0001)                 2.815246582031250E-02,      /* J =531 */
(PID.TID 0000.0001)                 2.813720703125000E-02       /* J =532 */
(PID.TID 0000.0001)     ;
(PID.TID 0000.0001) xgOrigin = /* X-axis origin of West  edge (cartesian: m, lat-lon: deg) */
(PID.TID 0000.0001)                -8.158333587646484E+01
(PID.TID 0000.0001)     ;
(PID.TID 0000.0001) ygOrigin = /* Y-axis origin of South edge (cartesian: m, lat-lon: deg) */
(PID.TID 0000.0001)                 2.685529327392578E+01
(PID.TID 0000.0001)     ;
(PID.TID 0000.0001) rSphere =  /* Radius ( ignored - cartesian, m - spherical ) */
(PID.TID 0000.0001)                 6.370000000000000E+06
(PID.TID 0000.0001)     ;
(PID.TID 0000.0001) deepAtmosphere = /* Deep/Shallow Atmosphere flag (True/False) */
(PID.TID 0000.0001)                   F
(PID.TID 0000.0001)     ;
(PID.TID 0000.0001) xC =  /* xC(:,1,:,1) : P-point X coord ( deg. or m if cartesian) */
(PID.TID 0000.0001)                -8.156250254313150E+01,      /* I =  1 */
(PID.TID 0000.0001)                -8.152083587646484E+01,      /* I =  2 */
(PID.TID 0000.0001)                -8.147916920979816E+01,      /* I =  3 */
(PID.TID 0000.0001)      . . .
(PID.TID 0000.0001)                -7.822916920979779E+01,      /* I = 81 */
(PID.TID 0000.0001)                -7.818750254313113E+01,      /* I = 82 */
(PID.TID 0000.0001)                -7.814583587646445E+01,      /* I = 83 */
(PID.TID 0000.0001)                -7.810416920979779E+01,      /* I = 84 */
(PID.TID 0000.0001)                -7.806250254313110E+01,      /* I = 85 */
(PID.TID 0000.0001)                -7.802083587646445E+01,      /* I = 86 */
(PID.TID 0000.0001)      . . .
(PID.TID 0000.0001)                -7.481250254313073E+01,      /* I =163 */
(PID.TID 0000.0001)                -7.477083587646408E+01,      /* I =164 */
(PID.TID 0000.0001)                -7.472916920979739E+01,      /* I =165 */
(PID.TID 0000.0001)                -7.468750254313073E+01,      /* I =166 */
(PID.TID 0000.0001)                -7.464583587646405E+01,      /* I =167 */
(PID.TID 0000.0001)                -7.460416920979739E+01,      /* I =168 */
(PID.TID 0000.0001)      . . .
(PID.TID 0000.0001)                -7.139583587646368E+01,      /* I =245 */
(PID.TID 0000.0001)                -7.135416920979702E+01,      /* I =246 */
(PID.TID 0000.0001)                -7.131250254313034E+01,      /* I =247 */
(PID.TID 0000.0001)                -7.127083587646368E+01,      /* I =248 */
(PID.TID 0000.0001)                -7.122916920979699E+01,      /* I =249 */
(PID.TID 0000.0001)                -7.118750254313034E+01,      /* I =250 */
(PID.TID 0000.0001)      . . .
(PID.TID 0000.0001)                -6.793750254312997E+01,      /* I =328 */
(PID.TID 0000.0001)                -6.789583587646328E+01,      /* I =329 */
(PID.TID 0000.0001)                -6.785416920979662E+01       /* I =330 */
(PID.TID 0000.0001)     ;
(PID.TID 0000.0001) yC =  /* yC(1,:,1,:) : P-point Y coord ( deg. or m if cartesian) */
(PID.TID 0000.0001)                 2.687237834930420E+01,      /* J =  1 */
(PID.TID 0000.0001)                 2.690654373168945E+01,      /* J =  2 */
(PID.TID 0000.0001)                 2.694069957733154E+01,      /* J =  3 */
(PID.TID 0000.0001)                 2.697484493255615E+01,      /* J =  4 */
(PID.TID 0000.0001)                 2.700897979736328E+01,      /* J =  5 */
(PID.TID 0000.0001)                 2.704310512542725E+01,      /* J =  6 */
(PID.TID 0000.0001)                 2.707721996307373E+01,      /* J =  7 */
(PID.TID 0000.0001)                 2.711132431030273E+01,      /* J =  8 */
(PID.TID 0000.0001)                 2.714541912078857E+01,      /* J =  9 */
(PID.TID 0000.0001)                 2.717950344085693E+01,      /* J = 10 */
(PID.TID 0000.0001)                 2.721357727050781E+01,      /* J = 11 */
(PID.TID 0000.0001)                 2.724764060974121E+01,      /* J = 12 */
(PID.TID 0000.0001)                 2.728169441223145E+01,      /* J = 13 */
(PID.TID 0000.0001)                 2.731573772430420E+01,      /* J = 14 */
(PID.TID 0000.0001)                 2.734977054595947E+01,      /* J = 15 */
(PID.TID 0000.0001)                 2.738379383087158E+01,      /* J = 16 */
(PID.TID 0000.0001)                 2.741780662536621E+01,      /* J = 17 */
(PID.TID 0000.0001)                 2.745180892944336E+01,      /* J = 18 */
(PID.TID 0000.0001)                 2.748580074310303E+01,      /* J = 19 */
(PID.TID 0000.0001)                 2.751978206634521E+01,      /* J = 20 */
(PID.TID 0000.0001)                 2.755375289916992E+01,      /* J = 21 */
(PID.TID 0000.0001)                 2.758771419525146E+01,      /* J = 22 */
(PID.TID 0000.0001)                 2.762166500091553E+01,      /* J = 23 */
(PID.TID 0000.0001)                 2.765560531616211E+01,      /* J = 24 */
(PID.TID 0000.0001)                 2.768953609466553E+01,      /* J = 25 */
(PID.TID 0000.0001)                 2.772345638275146E+01,      /* J = 26 */
(PID.TID 0000.0001)                 2.775736522674561E+01,      /* J = 27 */
(PID.TID 0000.0001)                 2.779126453399658E+01       /* J = 28 */
(PID.TID 0000.0001)     ;
(PID.TID 0000.0001) rcoord = /* P-point R coordinate (  units of r ) */
(PID.TID 0000.0001)                -2.500000000000000E+00,      /* K =  1 */
(PID.TID 0000.0001)                -7.500000000000000E+00,      /* K =  2 */
(PID.TID 0000.0001)                -1.250000000000000E+01,      /* K =  3 */
(PID.TID 0000.0001)                -1.750000000000000E+01,      /* K =  4 */
(PID.TID 0000.0001)                -2.250000000000000E+01,      /* K =  5 */
(PID.TID 0000.0001)                -2.750000000000000E+01,      /* K =  6 */
(PID.TID 0000.0001)                -3.250000000000000E+01,      /* K =  7 */
(PID.TID 0000.0001)                -3.750000000000000E+01,      /* K =  8 */
(PID.TID 0000.0001)                -4.250000000000000E+01,      /* K =  9 */
(PID.TID 0000.0001)                -4.750000000000000E+01,      /* K = 10 */
(PID.TID 0000.0001)                -5.250000000000000E+01,      /* K = 11 */
(PID.TID 0000.0001)                -5.750000000000000E+01,      /* K = 12 */
(PID.TID 0000.0001)                -6.250000000000000E+01,      /* K = 13 */
(PID.TID 0000.0001)                -6.750000000000000E+01,      /* K = 14 */
(PID.TID 0000.0001)                -7.250000000000000E+01,      /* K = 15 */
(PID.TID 0000.0001)                -7.750500000000000E+01,      /* K = 16 */
(PID.TID 0000.0001)                -8.251500000000000E+01,      /* K = 17 */
(PID.TID 0000.0001)                -8.753000000000000E+01,      /* K = 18 */
(PID.TID 0000.0001)                -9.256000000000000E+01,      /* K = 19 */
(PID.TID 0000.0001)                -9.761500000000001E+01,      /* K = 20 */
(PID.TID 0000.0001)                -1.027100000000000E+02,      /* K = 21 */
(PID.TID 0000.0001)                -1.078700000000000E+02,      /* K = 22 */
(PID.TID 0000.0001)                -1.131250000000000E+02,      /* K = 23 */
(PID.TID 0000.0001)                -1.185250000000000E+02,      /* K = 24 */
(PID.TID 0000.0001)                -1.241300000000000E+02,      /* K = 25 */
(PID.TID 0000.0001)                -1.300100000000000E+02,      /* K = 26 */
(PID.TID 0000.0001)                -1.362550000000000E+02,      /* K = 27 */
(PID.TID 0000.0001)                -1.429650000000000E+02,      /* K = 28 */
(PID.TID 0000.0001)                -1.502600000000000E+02,      /* K = 29 */
(PID.TID 0000.0001)                -1.582800000000000E+02,      /* K = 30 */
(PID.TID 0000.0001)                -1.671700000000000E+02,      /* K = 31 */
(PID.TID 0000.0001)                -1.770800000000000E+02,      /* K = 32 */
(PID.TID 0000.0001)                -1.881700000000000E+02,      /* K = 33 */
(PID.TID 0000.0001)                -2.005950000000000E+02,      /* K = 34 */
(PID.TID 0000.0001)                -2.145100000000000E+02,      /* K = 35 */
(PID.TID 0000.0001)                -2.300600000000000E+02,      /* K = 36 */
(PID.TID 0000.0001)                -2.473800000000000E+02,      /* K = 37 */
(PID.TID 0000.0001)                -2.665900000000000E+02,      /* K = 38 */
(PID.TID 0000.0001)                -2.877850000000000E+02,      /* K = 39 */
(PID.TID 0000.0001)                -3.110350000000000E+02,      /* K = 40 */
(PID.TID 0000.0001)                -3.363950000000000E+02,      /* K = 41 */
(PID.TID 0000.0001)                -3.638950000000000E+02,      /* K = 42 */
(PID.TID 0000.0001)                -3.935350000000000E+02,      /* K = 43 */
(PID.TID 0000.0001)                -4.252850000000000E+02,      /* K = 44 */
(PID.TID 0000.0001)                -4.590900000000000E+02,      /* K = 45 */
(PID.TID 0000.0001)                -4.948800000000001E+02,      /* K = 46 */
(PID.TID 0000.0001)                -5.325600000000001E+02,      /* K = 47 */
(PID.TID 0000.0001)                -5.720100000000001E+02,      /* K = 48 */
(PID.TID 0000.0001)                -6.130950000000001E+02,      /* K = 49 */
(PID.TID 0000.0001)                -6.556700000000002E+02,      /* K = 50 */
(PID.TID 0000.0001)                -6.995800000000002E+02,      /* K = 51 */
(PID.TID 0000.0001)                -7.446700000000002E+02,      /* K = 52 */
(PID.TID 0000.0001)                -7.907800000000002E+02,      /* K = 53 */
(PID.TID 0000.0001)                -8.377600000000002E+02,      /* K = 54 */
(PID.TID 0000.0001)                -8.854650000000003E+02,      /* K = 55 */
(PID.TID 0000.0001)                -9.337550000000002E+02,      /* K = 56 */
(PID.TID 0000.0001)                -9.825100000000002E+02,      /* K = 57 */
(PID.TID 0000.0001)                -1.031635000000000E+03,      /* K = 58 */
(PID.TID 0000.0001)                -1.081045000000000E+03,      /* K = 59 */
(PID.TID 0000.0001)                -1.130670000000000E+03,      /* K = 60 */
(PID.TID 0000.0001)                -1.180480000000000E+03,      /* K = 61 */
(PID.TID 0000.0001)                -1.230485000000000E+03,      /* K = 62 */
(PID.TID 0000.0001)                -1.280745000000000E+03,      /* K = 63 */
(PID.TID 0000.0001)                -1.331410000000000E+03,      /* K = 64 */
(PID.TID 0000.0001)                -1.382715000000000E+03,      /* K = 65 */
(PID.TID 0000.0001)                -1.434995000000000E+03,      /* K = 66 */
(PID.TID 0000.0001)                -1.488700000000000E+03,      /* K = 67 */
(PID.TID 0000.0001)                -1.544365000000000E+03,      /* K = 68 */
(PID.TID 0000.0001)                -1.602595000000000E+03,      /* K = 69 */
(PID.TID 0000.0001)                -1.664010000000000E+03,      /* K = 70 */
(PID.TID 0000.0001)                -1.729220000000000E+03,      /* K = 71 */
(PID.TID 0000.0001)                -1.798765000000000E+03,      /* K = 72 */
(PID.TID 0000.0001)                -1.873095000000000E+03,      /* K = 73 */
(PID.TID 0000.0001)                -1.952565000000000E+03,      /* K = 74 */
(PID.TID 0000.0001)                -2.037425000000000E+03,      /* K = 75 */
(PID.TID 0000.0001)                -2.127840000000000E+03,      /* K = 76 */
(PID.TID 0000.0001)                -2.223905000000000E+03,      /* K = 77 */
(PID.TID 0000.0001)                -2.325680000000000E+03,      /* K = 78 */
(PID.TID 0000.0001)                -2.433190000000001E+03,      /* K = 79 */
(PID.TID 0000.0001)                -2.546440000000001E+03,      /* K = 80 */
(PID.TID 0000.0001)                -2.665435000000000E+03,      /* K = 81 */
(PID.TID 0000.0001)                -2.790185000000000E+03,      /* K = 82 */
(PID.TID 0000.0001)                -2.920690000000001E+03,      /* K = 83 */
(PID.TID 0000.0001)                -3.056940000000001E+03,      /* K = 84 */
(PID.TID 0000.0001)                -3.198935000000000E+03,      /* K = 85 */
(PID.TID 0000.0001)                -3.346685000000000E+03,      /* K = 86 */
(PID.TID 0000.0001)                -3.500190000000001E+03,      /* K = 87 */
(PID.TID 0000.0001)                -3.659440000000001E+03,      /* K = 88 */
(PID.TID 0000.0001)                -3.824435000000000E+03,      /* K = 89 */
(PID.TID 0000.0001)                -3.995185000000000E+03,      /* K = 90 */
(PID.TID 0000.0001)                -4.171690000000001E+03,      /* K = 91 */
(PID.TID 0000.0001)                -4.353940000000001E+03,      /* K = 92 */
(PID.TID 0000.0001)                -4.541935000000000E+03,      /* K = 93 */
(PID.TID 0000.0001)                -4.735685000000000E+03,      /* K = 94 */
(PID.TID 0000.0001)                -4.935190000000001E+03,      /* K = 95 */
(PID.TID 0000.0001)                -5.140440000000001E+03,      /* K = 96 */
(PID.TID 0000.0001)                -5.351435000000000E+03,      /* K = 97 */
(PID.TID 0000.0001)                -5.568185000000000E+03,      /* K = 98 */
(PID.TID 0000.0001)                -5.790690000000001E+03,      /* K = 99 */
(PID.TID 0000.0001)                -6.018940000000001E+03       /* K =100 */
(PID.TID 0000.0001)     ;
(PID.TID 0000.0001) rF =   /* W-Interf. R coordinate (  units of r ) */
(PID.TID 0000.0001)                 0.000000000000000E+00,      /* K =  1 */
(PID.TID 0000.0001)                -5.000000000000000E+00,      /* K =  2 */
(PID.TID 0000.0001)                -1.000000000000000E+01,      /* K =  3 */
(PID.TID 0000.0001)                -1.500000000000000E+01,      /* K =  4 */
(PID.TID 0000.0001)                -2.000000000000000E+01,      /* K =  5 */
(PID.TID 0000.0001)                -2.500000000000000E+01,      /* K =  6 */
(PID.TID 0000.0001)                -3.000000000000000E+01,      /* K =  7 */
(PID.TID 0000.0001)                -3.500000000000000E+01,      /* K =  8 */
(PID.TID 0000.0001)                -4.000000000000000E+01,      /* K =  9 */
(PID.TID 0000.0001)                -4.500000000000000E+01,      /* K = 10 */
(PID.TID 0000.0001)                -5.000000000000000E+01,      /* K = 11 */
(PID.TID 0000.0001)                -5.500000000000000E+01,      /* K = 12 */
(PID.TID 0000.0001)                -6.000000000000000E+01,      /* K = 13 */
(PID.TID 0000.0001)                -6.500000000000000E+01,      /* K = 14 */
(PID.TID 0000.0001)                -7.000000000000000E+01,      /* K = 15 */
(PID.TID 0000.0001)                -7.500000000000000E+01,      /* K = 16 */
(PID.TID 0000.0001)                -8.001000000000001E+01,      /* K = 17 */
(PID.TID 0000.0001)                -8.502000000000001E+01,      /* K = 18 */
(PID.TID 0000.0001)                -9.004000000000001E+01,      /* K = 19 */
(PID.TID 0000.0001)                -9.508000000000001E+01,      /* K = 20 */
(PID.TID 0000.0001)                -1.001500000000000E+02,      /* K = 21 */
(PID.TID 0000.0001)                -1.052700000000000E+02,      /* K = 22 */
(PID.TID 0000.0001)                -1.104700000000000E+02,      /* K = 23 */
(PID.TID 0000.0001)                -1.157800000000000E+02,      /* K = 24 */
(PID.TID 0000.0001)                -1.212700000000000E+02,      /* K = 25 */
(PID.TID 0000.0001)                -1.269900000000000E+02,      /* K = 26 */
(PID.TID 0000.0001)                -1.330300000000000E+02,      /* K = 27 */
(PID.TID 0000.0001)                -1.394800000000000E+02,      /* K = 28 */
(PID.TID 0000.0001)                -1.464500000000000E+02,      /* K = 29 */
(PID.TID 0000.0001)                -1.540700000000000E+02,      /* K = 30 */
(PID.TID 0000.0001)                -1.624900000000000E+02,      /* K = 31 */
(PID.TID 0000.0001)                -1.718500000000000E+02,      /* K = 32 */
(PID.TID 0000.0001)                -1.823100000000000E+02,      /* K = 33 */
(PID.TID 0000.0001)                -1.940300000000000E+02,      /* K = 34 */
(PID.TID 0000.0001)                -2.071600000000000E+02,      /* K = 35 */
(PID.TID 0000.0001)                -2.218600000000000E+02,      /* K = 36 */
(PID.TID 0000.0001)                -2.382600000000000E+02,      /* K = 37 */
(PID.TID 0000.0001)                -2.564999999999999E+02,      /* K = 38 */
(PID.TID 0000.0001)                -2.766799999999999E+02,      /* K = 39 */
(PID.TID 0000.0001)                -2.988899999999999E+02,      /* K = 40 */
(PID.TID 0000.0001)                -3.231799999999999E+02,      /* K = 41 */
(PID.TID 0000.0001)                -3.496100000000000E+02,      /* K = 42 */
(PID.TID 0000.0001)                -3.781799999999999E+02,      /* K = 43 */
(PID.TID 0000.0001)                -4.088899999999999E+02,      /* K = 44 */
(PID.TID 0000.0001)                -4.416799999999999E+02,      /* K = 45 */
(PID.TID 0000.0001)                -4.764999999999999E+02,      /* K = 46 */
(PID.TID 0000.0001)                -5.132600000000000E+02,      /* K = 47 */
(PID.TID 0000.0001)                -5.518600000000000E+02,      /* K = 48 */
(PID.TID 0000.0001)                -5.921600000000000E+02,      /* K = 49 */
(PID.TID 0000.0001)                -6.340300000000000E+02,      /* K = 50 */
(PID.TID 0000.0001)                -6.773099999999999E+02,      /* K = 51 */
(PID.TID 0000.0001)                -7.218499999999999E+02,      /* K = 52 */
(PID.TID 0000.0001)                -7.674899999999999E+02,      /* K = 53 */
(PID.TID 0000.0001)                -8.140699999999999E+02,      /* K = 54 */
(PID.TID 0000.0001)                -8.614499999999999E+02,      /* K = 55 */
(PID.TID 0000.0001)                -9.094799999999999E+02,      /* K = 56 */
(PID.TID 0000.0001)                -9.580299999999999E+02,      /* K = 57 */
(PID.TID 0000.0001)                -1.006990000000000E+03,      /* K = 58 */
(PID.TID 0000.0001)                -1.056280000000000E+03,      /* K = 59 */
(PID.TID 0000.0001)                -1.105810000000000E+03,      /* K = 60 */
(PID.TID 0000.0001)                -1.155530000000000E+03,      /* K = 61 */
(PID.TID 0000.0001)                -1.205430000000000E+03,      /* K = 62 */
(PID.TID 0000.0001)                -1.255540000000000E+03,      /* K = 63 */
(PID.TID 0000.0001)                -1.305950000000000E+03,      /* K = 64 */
(PID.TID 0000.0001)                -1.356870000000000E+03,      /* K = 65 */
(PID.TID 0000.0001)                -1.408560000000000E+03,      /* K = 66 */
(PID.TID 0000.0001)                -1.461430000000000E+03,      /* K = 67 */
(PID.TID 0000.0001)                -1.515970000000000E+03,      /* K = 68 */
(PID.TID 0000.0001)                -1.572760000000000E+03,      /* K = 69 */
(PID.TID 0000.0001)                -1.632430000000000E+03,      /* K = 70 */
(PID.TID 0000.0001)                -1.695590000000000E+03,      /* K = 71 */
(PID.TID 0000.0001)                -1.762850000000000E+03,      /* K = 72 */
(PID.TID 0000.0001)                -1.834680000000000E+03,      /* K = 73 */
(PID.TID 0000.0001)                -1.911510000000000E+03,      /* K = 74 */
(PID.TID 0000.0001)                -1.993620000000000E+03,      /* K = 75 */
(PID.TID 0000.0001)                -2.081230000000000E+03,      /* K = 76 */
(PID.TID 0000.0001)                -2.174450000000000E+03,      /* K = 77 */
(PID.TID 0000.0001)                -2.273360000000000E+03,      /* K = 78 */
(PID.TID 0000.0001)                -2.378000000000000E+03,      /* K = 79 */
(PID.TID 0000.0001)                -2.488380000000000E+03,      /* K = 80 */
(PID.TID 0000.0001)                -2.604500000000000E+03,      /* K = 81 */
(PID.TID 0000.0001)                -2.726369999999999E+03,      /* K = 82 */
(PID.TID 0000.0001)                -2.854000000000000E+03,      /* K = 83 */
(PID.TID 0000.0001)                -2.987380000000000E+03,      /* K = 84 */
(PID.TID 0000.0001)                -3.126500000000000E+03,      /* K = 85 */
(PID.TID 0000.0001)                -3.271369999999999E+03,      /* K = 86 */
(PID.TID 0000.0001)                -3.422000000000000E+03,      /* K = 87 */
(PID.TID 0000.0001)                -3.578380000000000E+03,      /* K = 88 */
(PID.TID 0000.0001)                -3.740500000000000E+03,      /* K = 89 */
(PID.TID 0000.0001)                -3.908369999999999E+03,      /* K = 90 */
(PID.TID 0000.0001)                -4.082000000000000E+03,      /* K = 91 */
(PID.TID 0000.0001)                -4.261379999999999E+03,      /* K = 92 */
(PID.TID 0000.0001)                -4.446499999999999E+03,      /* K = 93 */
(PID.TID 0000.0001)                -4.637369999999999E+03,      /* K = 94 */
(PID.TID 0000.0001)                -4.833999999999999E+03,      /* K = 95 */
(PID.TID 0000.0001)                -5.036379999999999E+03,      /* K = 96 */
(PID.TID 0000.0001)                -5.244499999999999E+03,      /* K = 97 */
(PID.TID 0000.0001)                -5.458369999999999E+03,      /* K = 98 */
(PID.TID 0000.0001)                -5.677999999999999E+03,      /* K = 99 */
(PID.TID 0000.0001)                -5.903379999999999E+03,      /* K =100 */
(PID.TID 0000.0001)                -6.134499999999999E+03       /* K =101 */
(PID.TID 0000.0001)     ;
(PID.TID 0000.0001) deepFacC = /* deep-model grid factor @ cell-Center (-) */
(PID.TID 0000.0001)   100 @  1.000000000000000E+00              /* K =  1:100 */
(PID.TID 0000.0001)     ;
(PID.TID 0000.0001) deepFacF = /* deep-model grid factor @ W-Interface (-) */
(PID.TID 0000.0001)   101 @  1.000000000000000E+00              /* K =  1:101 */
(PID.TID 0000.0001)     ;
(PID.TID 0000.0001) rVel2wUnit = /* convert units: rVel -> wSpeed (=1 if z-coord)*/
(PID.TID 0000.0001)   101 @  1.000000000000000E+00              /* K =  1:101 */
(PID.TID 0000.0001)     ;
(PID.TID 0000.0001) wUnit2rVel = /* convert units: wSpeed -> rVel (=1 if z-coord)*/
(PID.TID 0000.0001)   101 @  1.000000000000000E+00              /* K =  1:101 */
(PID.TID 0000.0001)     ;
(PID.TID 0000.0001) dBdrRef = /* Vertical grad. of reference buoyancy [(m/s/r)^2] */
(PID.TID 0000.0001)     5 @  0.000000000000000E+00,             /* K =  1:  5 */
(PID.TID 0000.0001)                 9.694282843778342E-06,      /* K =  6 */
(PID.TID 0000.0001)                 2.426513223807763E-05,      /* K =  7 */
(PID.TID 0000.0001)                 1.452975530153167E-05,      /* K =  8 */
(PID.TID 0000.0001)                 9.681498625854328E-06,      /* K =  9 */
(PID.TID 0000.0001)                 4.842099844624020E-05,      /* K = 10 */
(PID.TID 0000.0001)                 6.280856330023614E-05,      /* K = 11 */
(PID.TID 0000.0001)                 8.185617076656702E-05,      /* K = 12 */
(PID.TID 0000.0001)                 1.295252644691406E-04,      /* K = 13 */
(PID.TID 0000.0001)                 1.095351351384002E-04,      /* K = 14 */
(PID.TID 0000.0001)                 1.329169312007239E-04,      /* K = 15 */
(PID.TID 0000.0001)                 1.367041979360881E-04,      /* K = 16 */
(PID.TID 0000.0001)                 1.211727126593573E-04,      /* K = 17 */
(PID.TID 0000.0001)                 1.302265701121417E-04,      /* K = 18 */
(PID.TID 0000.0001)                 1.190854314588815E-04,      /* K = 19 */
(PID.TID 0000.0001)                 1.132023267377615E-04,      /* K = 20 */
(PID.TID 0000.0001)                 1.071632265654582E-04,      /* K = 21 */
(PID.TID 0000.0001)                 1.051393672457803E-04,      /* K = 22 */
(PID.TID 0000.0001)                 1.025752720636568E-04,      /* K = 23 */
(PID.TID 0000.0001)                 9.917395824143918E-05,      /* K = 24 */
(PID.TID 0000.0001)                 9.104030067387556E-05,      /* K = 25 */
(PID.TID 0000.0001)                 8.624441260795840E-05,      /* K = 26 */
(PID.TID 0000.0001)                 8.413036901537412E-05,      /* K = 27 */
(PID.TID 0000.0001)                 6.366728012651445E-05,      /* K = 28 */
(PID.TID 0000.0001)                 5.812092618380799E-05,      /* K = 29 */
(PID.TID 0000.0001)                 5.507951137016039E-05,      /* K = 30 */
(PID.TID 0000.0001)                 4.695510592930360E-05,      /* K = 31 */
(PID.TID 0000.0001)                 4.596409715692217E-05,      /* K = 32 */
(PID.TID 0000.0001)                 4.072795425761271E-05,      /* K = 33 */
(PID.TID 0000.0001)                 3.175298295526856E-05,      /* K = 34 */
(PID.TID 0000.0001)                 3.093452381022950E-05,      /* K = 35 */
(PID.TID 0000.0001)                 2.864003459600112E-05,      /* K = 36 */
(PID.TID 0000.0001)                 2.767315329576147E-05,      /* K = 37 */
(PID.TID 0000.0001)                 2.463000191580109E-05,      /* K = 38 */
(PID.TID 0000.0001)                 2.475053767167416E-05,      /* K = 39 */
(PID.TID 0000.0001)                 1.906506350221241E-05,      /* K = 40 */
(PID.TID 0000.0001)                 1.865582618722828E-05,      /* K = 41 */
(PID.TID 0000.0001)                 1.823366094760355E-05,      /* K = 42 */
(PID.TID 0000.0001)                 1.471037885515795E-05,      /* K = 43 */
(PID.TID 0000.0001)                 1.630603945735049E-05,      /* K = 44 */
(PID.TID 0000.0001)                 1.384745352787863E-05,      /* K = 45 */
(PID.TID 0000.0001)                 1.226594411185851E-05,      /* K = 46 */
(PID.TID 0000.0001)                 1.225310460290910E-05,      /* K = 47 */
(PID.TID 0000.0001)                 1.223011113144029E-05,      /* K = 48 */
(PID.TID 0000.0001)                 1.061638239990844E-05,      /* K = 49 */
(PID.TID 0000.0001)                 1.070650633014499E-05,      /* K = 50 */
(PID.TID 0000.0001)                 9.357472423340062E-06,      /* K = 51 */
(PID.TID 0000.0001)                 9.812756875994976E-06,      /* K = 52 */
(PID.TID 0000.0001)                 9.364680965538371E-06,      /* K = 53 */
(PID.TID 0000.0001)                 6.430982300518885E-06,      /* K = 54 */
(PID.TID 0000.0001)                 8.970058816087760E-06,      /* K = 55 */
(PID.TID 0000.0001)                 8.398462027768182E-06,      /* K = 56 */
(PID.TID 0000.0001)                 7.294531901104187E-06,      /* K = 57 */
(PID.TID 0000.0001)                 8.642565592484861E-06,      /* K = 58 */
(PID.TID 0000.0001)                 6.405731826441176E-06,      /* K = 59 */
(PID.TID 0000.0001)                 8.743452988220992E-06,      /* K = 60 */
(PID.TID 0000.0001)                 6.590306221026928E-06,      /* K = 61 */
(PID.TID 0000.0001)                 7.462277694900194E-06,      /* K = 62 */
(PID.TID 0000.0001)                 5.625478499738029E-06,      /* K = 63 */
(PID.TID 0000.0001)                 6.494457456351866E-06,      /* K = 64 */
(PID.TID 0000.0001)                 5.872364624284492E-06,      /* K = 65 */
(PID.TID 0000.0001)                 5.495436518643386E-06,      /* K = 66 */
(PID.TID 0000.0001)                 5.094601592541214E-06,      /* K = 67 */
(PID.TID 0000.0001)                 4.437172619322077E-06,      /* K = 68 */
(PID.TID 0000.0001)                 4.016940542409763E-06,      /* K = 69 */
(PID.TID 0000.0001)                 4.028908121728164E-06,      /* K = 70 */
(PID.TID 0000.0001)                 2.246388502686123E-06,      /* K = 71 */
(PID.TID 0000.0001)                 2.998142894531076E-06,      /* K = 72 */
(PID.TID 0000.0001)                 2.815413573924730E-06,      /* K = 73 */
(PID.TID 0000.0001)                 2.814329879263964E-06,      /* K = 74 */
(PID.TID 0000.0001)                 2.327158902006369E-06,      /* K = 75 */
(PID.TID 0000.0001)                 1.523559191918705E-06,      /* K = 76 */
(PID.TID 0000.0001)                 2.223754279938488E-06,      /* K = 77 */
(PID.TID 0000.0001)                 1.243572598777220E-06,      /* K = 78 */
(PID.TID 0000.0001)                 1.884009398486976E-06,      /* K = 79 */
(PID.TID 0000.0001)                 1.146309977456730E-06,      /* K = 80 */
(PID.TID 0000.0001)                 9.836409573498765E-07,      /* K = 81 */
(PID.TID 0000.0001)                 1.666564082034753E-06,      /* K = 82 */
(PID.TID 0000.0001)                 8.096789666921265E-07,      /* K = 83 */
(PID.TID 0000.0001)                 9.015806361848934E-07,      /* K = 84 */
(PID.TID 0000.0001)                 9.899996711216439E-07,      /* K = 85 */
(PID.TID 0000.0001)                 1.360959195968683E-06,      /* K = 86 */
(PID.TID 0000.0001)                 3.633635105266278E-07,      /* K = 87 */
(PID.TID 0000.0001)                 7.257552276248978E-07,      /* K = 88 */
(PID.TID 0000.0001)                 8.165089567519712E-07,      /* K = 89 */
(PID.TID 0000.0001)                 7.043987264958734E-07,      /* K = 90 */
(PID.TID 0000.0001)                 6.956983617110328E-07,      /* K = 91 */
(PID.TID 0000.0001)                 6.880703959048398E-07,      /* K = 92 */
(PID.TID 0000.0001)                 6.813676413074075E-07,      /* K = 93 */
(PID.TID 0000.0001)                 6.754628223828996E-07,      /* K = 94 */
(PID.TID 0000.0001)                 3.049729588883796E-07,      /* K = 95 */
(PID.TID 0000.0001)                 6.657955553385863E-07,      /* K = 96 */
(PID.TID 0000.0001)                 5.675084375793845E-07,      /* K = 97 */
(PID.TID 0000.0001)                 3.767262833194376E-07,      /* K = 98 */
(PID.TID 0000.0001)                 2.816808424830599E-07,      /* K = 99 */
(PID.TID 0000.0001)                 1.873891169846885E-07       /* K =100 */
(PID.TID 0000.0001)     ;
(PID.TID 0000.0001) rotateGrid = /* use rotated grid ( True/False ) */
(PID.TID 0000.0001)                   F
(PID.TID 0000.0001)     ;
(PID.TID 0000.0001) phiEuler = /* Euler angle, rotation about original z-coordinate [rad] */
(PID.TID 0000.0001)                 0.000000000000000E+00
(PID.TID 0000.0001)     ;
(PID.TID 0000.0001) thetaEuler = /* Euler angle, rotation about new x-coordinate [rad] */
(PID.TID 0000.0001)                 0.000000000000000E+00
(PID.TID 0000.0001)     ;
(PID.TID 0000.0001) psiEuler = /* Euler angle, rotation about new z-coordinate [rad] */
(PID.TID 0000.0001)                 0.000000000000000E+00
(PID.TID 0000.0001)     ;
(PID.TID 0000.0001) dxF =  /* dxF(:,1,:,1) ( units: m ) */
(PID.TID 0000.0001)   330 @  4.132168078704865E+03              /* I =  1:330 */
(PID.TID 0000.0001)     ;
(PID.TID 0000.0001) dxF =  /* dxF(1,:,1,:) ( units: m ) */
(PID.TID 0000.0001)                 4.132168078704865E+03,      /* J =  1 */
(PID.TID 0000.0001)                 4.130918776160077E+03,      /* J =  2 */
(PID.TID 0000.0001)                 4.129668354115694E+03,      /* J =  3 */
(PID.TID 0000.0001)                 4.128416849220377E+03,      /* J =  4 */
(PID.TID 0000.0001)                 4.127164263270209E+03,      /* J =  5 */
(PID.TID 0000.0001)                 4.125910563003906E+03,      /* J =  6 */
(PID.TID 0000.0001)                 4.124655785191007E+03,      /* J =  7 */
(PID.TID 0000.0001)                 4.123399931625523E+03,      /* J =  8 */
(PID.TID 0000.0001)                 4.122142968921520E+03,      /* J =  9 */
(PID.TID 0000.0001)                 4.120884933969184E+03,      /* J = 10 */
(PID.TID 0000.0001)                 4.119625828560444E+03,      /* J = 11 */
(PID.TID 0000.0001)                 4.118365654486509E+03,      /* J = 12 */
(PID.TID 0000.0001)                 4.117104378195548E+03,      /* J = 13 */
(PID.TID 0000.0001)                 4.115842036738223E+03,      /* J = 14 */
(PID.TID 0000.0001)                 4.114578631903650E+03,      /* J = 15 */
(PID.TID 0000.0001)                 4.113314130015837E+03,      /* J = 16 */
(PID.TID 0000.0001)                 4.112048568245555E+03,      /* J = 17 */
(PID.TID 0000.0001)                 4.110781948379812E+03,      /* J = 18 */
(PID.TID 0000.0001)                 4.109514272204890E+03,      /* J = 19 */
(PID.TID 0000.0001)                 4.108245541506343E+03,      /* J = 20 */
(PID.TID 0000.0001)                 4.106975758068988E+03,      /* J = 21 */
(PID.TID 0000.0001)                 4.105704887969090E+03,      /* J = 22 */
(PID.TID 0000.0001)                 4.104432968616856E+03,      /* J = 23 */
(PID.TID 0000.0001)                 4.103160001794981E+03,      /* J = 24 */
(PID.TID 0000.0001)                 4.101885953456212E+03,      /* J = 25 */
(PID.TID 0000.0001)                 4.100610861130162E+03,      /* J = 26 */
(PID.TID 0000.0001)                 4.099334762507415E+03,      /* J = 27 */
(PID.TID 0000.0001)                 4.098057587588119E+03       /* J = 28 */
(PID.TID 0000.0001)     ;
(PID.TID 0000.0001) dyF =  /* dyF(:,1,:,1) ( units: m ) */
(PID.TID 0000.0001)   330 @  3.798951025203276E+03              /* I =  1:330 */
(PID.TID 0000.0001)     ;
(PID.TID 0000.0001) dyF =  /* dyF(1,:,1,:) ( units: m ) */
(PID.TID 0000.0001)                 3.798951025203276E+03,      /* J =  1 */
(PID.TID 0000.0001)                 3.797890754194288E+03,      /* J =  2 */
(PID.TID 0000.0001)                 3.796830483185300E+03,      /* J =  3 */
(PID.TID 0000.0001)                 3.795558157974515E+03,      /* J =  4 */
(PID.TID 0000.0001)                 3.794497886965527E+03,      /* J =  5 */
(PID.TID 0000.0001)                 3.793437615956539E+03,      /* J =  6 */
(PID.TID 0000.0001)                 3.792165290745754E+03,      /* J =  7 */
(PID.TID 0000.0001)                 3.791105019736766E+03,      /* J =  8 */
(PID.TID 0000.0001)                 3.790044748727778E+03,      /* J =  9 */
(PID.TID 0000.0001)                 3.788772423516993E+03,      /* J = 10 */
(PID.TID 0000.0001)                 3.787712152508005E+03,      /* J = 11 */
(PID.TID 0000.0001)                 3.786439827297219E+03,      /* J = 12 */
(PID.TID 0000.0001)                 3.785591610490029E+03,      /* J = 13 */
(PID.TID 0000.0001)                 3.784107231077447E+03,      /* J = 14 */
(PID.TID 0000.0001)                 3.783259014270256E+03,      /* J = 15 */
(PID.TID 0000.0001)                 3.781986689059471E+03,      /* J = 16 */
(PID.TID 0000.0001)                 3.780926418050483E+03,      /* J = 17 */
(PID.TID 0000.0001)                 3.779654092839698E+03,      /* J = 18 */
(PID.TID 0000.0001)                 3.778593821830710E+03,      /* J = 19 */
(PID.TID 0000.0001)                 3.777321496619924E+03,      /* J = 20 */
(PID.TID 0000.0001)                 3.776261225610937E+03,      /* J = 21 */
(PID.TID 0000.0001)                 3.775200954601949E+03,      /* J = 22 */
(PID.TID 0000.0001)                 3.773928629391164E+03,      /* J = 23 */
(PID.TID 0000.0001)                 3.772868358382176E+03,      /* J = 24 */
(PID.TID 0000.0001)                 3.771808087373188E+03,      /* J = 25 */
(PID.TID 0000.0001)                 3.770535762162403E+03,      /* J = 26 */
(PID.TID 0000.0001)                 3.769263436951617E+03,      /* J = 27 */
(PID.TID 0000.0001)                 3.768415220144427E+03       /* J = 28 */
(PID.TID 0000.0001)     ;
(PID.TID 0000.0001) dxG =  /* dxG(:,1,:,1) ( units: m ) */
(PID.TID 0000.0001)   330 @  4.132792266102490E+03              /* I =  1:330 */
(PID.TID 0000.0001)     ;
(PID.TID 0000.0001) dxG =  /* dxG(1,:,1,:) ( units: m ) */
(PID.TID 0000.0001)                 4.132792266102490E+03,      /* J =  1 */
(PID.TID 0000.0001)                 4.131543523884096E+03,      /* J =  2 */
(PID.TID 0000.0001)                 4.130293661329000E+03,      /* J =  3 */
(PID.TID 0000.0001)                 4.129042680111336E+03,      /* J =  4 */
(PID.TID 0000.0001)                 4.127790651895232E+03,      /* J =  5 */
(PID.TID 0000.0001)                 4.126537508526810E+03,      /* J =  6 */
(PID.TID 0000.0001)                 4.125283251678356E+03,      /* J =  7 */
(PID.TID 0000.0001)                 4.124027953257525E+03,      /* J =  8 */
(PID.TID 0000.0001)                 4.122771544862921E+03,      /* J =  9 */
(PID.TID 0000.0001)                 4.121514028164970E+03,      /* J = 10 */
(PID.TID 0000.0001)                 4.120255475314408E+03,      /* J = 11 */
(PID.TID 0000.0001)                 4.118995817662741E+03,      /* J = 12 */
(PID.TID 0000.0001)                 4.117735127522450E+03,      /* J = 13 */
(PID.TID 0000.0001)                 4.116473265355150E+03,      /* J = 14 */
(PID.TID 0000.0001)                 4.115210445004191E+03,      /* J = 15 */
(PID.TID 0000.0001)                 4.113946455960185E+03,      /* J = 16 */
(PID.TID 0000.0001)                 4.112681441584010E+03,      /* J = 17 */
(PID.TID 0000.0001)                 4.111415332734301E+03,      /* J = 18 */
(PID.TID 0000.0001)                 4.110148202207719E+03,      /* J = 19 */
(PID.TID 0000.0001)                 4.108879980698939E+03,      /* J = 20 */
(PID.TID 0000.0001)                 4.107610741165563E+03,      /* J = 21 */
(PID.TID 0000.0001)                 4.106340414138508E+03,      /* J = 22 */
(PID.TID 0000.0001)                 4.105069001279958E+03,      /* J = 23 */
(PID.TID 0000.0001)                 4.103796575788615E+03,      /* J = 24 */
(PID.TID 0000.0001)                 4.102523067950195E+03,      /* J = 25 */
(PID.TID 0000.0001)                 4.101248479424976E+03,      /* J = 26 */
(PID.TID 0000.0001)                 4.099972883652305E+03,      /* J = 27 */
(PID.TID 0000.0001)                 4.098696282533544E+03       /* J = 28 */
(PID.TID 0000.0001)     ;
(PID.TID 0000.0001) dyG =  /* dyG(:,1,:,1) ( units: m ) */
(PID.TID 0000.0001)   330 @  3.798951025203276E+03              /* I =  1:330 */
(PID.TID 0000.0001)     ;
(PID.TID 0000.0001) dyG =  /* dyG(1,:,1,:) ( units: m ) */
(PID.TID 0000.0001)                 3.798951025203276E+03,      /* J =  1 */
(PID.TID 0000.0001)                 3.797890754194288E+03,      /* J =  2 */
(PID.TID 0000.0001)                 3.796830483185300E+03,      /* J =  3 */
(PID.TID 0000.0001)                 3.795558157974515E+03,      /* J =  4 */
(PID.TID 0000.0001)                 3.794497886965527E+03,      /* J =  5 */
(PID.TID 0000.0001)                 3.793437615956539E+03,      /* J =  6 */
(PID.TID 0000.0001)                 3.792165290745754E+03,      /* J =  7 */
(PID.TID 0000.0001)                 3.791105019736766E+03,      /* J =  8 */
(PID.TID 0000.0001)                 3.790044748727778E+03,      /* J =  9 */
(PID.TID 0000.0001)                 3.788772423516993E+03,      /* J = 10 */
(PID.TID 0000.0001)                 3.787712152508005E+03,      /* J = 11 */
(PID.TID 0000.0001)                 3.786439827297219E+03,      /* J = 12 */
(PID.TID 0000.0001)                 3.785591610490029E+03,      /* J = 13 */
(PID.TID 0000.0001)                 3.784107231077447E+03,      /* J = 14 */
(PID.TID 0000.0001)                 3.783259014270256E+03,      /* J = 15 */
(PID.TID 0000.0001)                 3.781986689059471E+03,      /* J = 16 */
(PID.TID 0000.0001)                 3.780926418050483E+03,      /* J = 17 */
(PID.TID 0000.0001)                 3.779654092839698E+03,      /* J = 18 */
(PID.TID 0000.0001)                 3.778593821830710E+03,      /* J = 19 */
(PID.TID 0000.0001)                 3.777321496619924E+03,      /* J = 20 */
(PID.TID 0000.0001)                 3.776261225610937E+03,      /* J = 21 */
(PID.TID 0000.0001)                 3.775200954601949E+03,      /* J = 22 */
(PID.TID 0000.0001)                 3.773928629391164E+03,      /* J = 23 */
(PID.TID 0000.0001)                 3.772868358382176E+03,      /* J = 24 */
(PID.TID 0000.0001)                 3.771808087373188E+03,      /* J = 25 */
(PID.TID 0000.0001)                 3.770535762162403E+03,      /* J = 26 */
(PID.TID 0000.0001)                 3.769263436951617E+03,      /* J = 27 */
(PID.TID 0000.0001)                 3.768415220144427E+03       /* J = 28 */
(PID.TID 0000.0001)     ;
(PID.TID 0000.0001) dxC =  /* dxC(:,1,:,1) ( units: m ) */
(PID.TID 0000.0001)   330 @  4.132168078704865E+03              /* I =  1:330 */
(PID.TID 0000.0001)     ;
(PID.TID 0000.0001) dxC =  /* dxC(1,:,1,:) ( units: m ) */
(PID.TID 0000.0001)                 4.132168078704865E+03,      /* J =  1 */
(PID.TID 0000.0001)                 4.130918776160077E+03,      /* J =  2 */
(PID.TID 0000.0001)                 4.129668354115694E+03,      /* J =  3 */
(PID.TID 0000.0001)                 4.128416849220377E+03,      /* J =  4 */
(PID.TID 0000.0001)                 4.127164263270209E+03,      /* J =  5 */
(PID.TID 0000.0001)                 4.125910563003906E+03,      /* J =  6 */
(PID.TID 0000.0001)                 4.124655785191007E+03,      /* J =  7 */
(PID.TID 0000.0001)                 4.123399931625523E+03,      /* J =  8 */
(PID.TID 0000.0001)                 4.122142968921520E+03,      /* J =  9 */
(PID.TID 0000.0001)                 4.120884933969184E+03,      /* J = 10 */
(PID.TID 0000.0001)                 4.119625828560444E+03,      /* J = 11 */
(PID.TID 0000.0001)                 4.118365654486509E+03,      /* J = 12 */
(PID.TID 0000.0001)                 4.117104378195548E+03,      /* J = 13 */
(PID.TID 0000.0001)                 4.115842036738223E+03,      /* J = 14 */
(PID.TID 0000.0001)                 4.114578631903650E+03,      /* J = 15 */
(PID.TID 0000.0001)                 4.113314130015837E+03,      /* J = 16 */
(PID.TID 0000.0001)                 4.112048568245555E+03,      /* J = 17 */
(PID.TID 0000.0001)                 4.110781948379812E+03,      /* J = 18 */
(PID.TID 0000.0001)                 4.109514272204890E+03,      /* J = 19 */
(PID.TID 0000.0001)                 4.108245541506343E+03,      /* J = 20 */
(PID.TID 0000.0001)                 4.106975758068988E+03,      /* J = 21 */
(PID.TID 0000.0001)                 4.105704887969090E+03,      /* J = 22 */
(PID.TID 0000.0001)                 4.104432968616856E+03,      /* J = 23 */
(PID.TID 0000.0001)                 4.103160001794981E+03,      /* J = 24 */
(PID.TID 0000.0001)                 4.101885953456212E+03,      /* J = 25 */
(PID.TID 0000.0001)                 4.100610861130162E+03,      /* J = 26 */
(PID.TID 0000.0001)                 4.099334762507415E+03,      /* J = 27 */
(PID.TID 0000.0001)                 4.098057587588119E+03       /* J = 28 */
(PID.TID 0000.0001)     ;
(PID.TID 0000.0001) dyC =  /* dyC(:,1,:,1) ( units: m ) */
(PID.TID 0000.0001)   330 @  3.463587305060435E+03              /* I =  1:330 */
(PID.TID 0000.0001)     ;
(PID.TID 0000.0001) dyC =  /* dyC(1,:,1,:) ( units: m ) */
(PID.TID 0000.0001)                 3.463587305060435E+03,      /* J =  1 */
(PID.TID 0000.0001)                 3.798420889698782E+03,      /* J =  2 */
(PID.TID 0000.0001)                 3.797360618689794E+03,      /* J =  3 */
(PID.TID 0000.0001)                 3.796194320579908E+03,      /* J =  4 */
(PID.TID 0000.0001)                 3.795028022470021E+03,      /* J =  5 */
(PID.TID 0000.0001)                 3.793967751461033E+03,      /* J =  6 */
(PID.TID 0000.0001)                 3.792801453351146E+03,      /* J =  7 */
(PID.TID 0000.0001)                 3.791635155241260E+03,      /* J =  8 */
(PID.TID 0000.0001)                 3.790574884232272E+03,      /* J =  9 */
(PID.TID 0000.0001)                 3.789408586122385E+03,      /* J = 10 */
(PID.TID 0000.0001)                 3.788242288012499E+03,      /* J = 11 */
(PID.TID 0000.0001)                 3.787075989902612E+03,      /* J = 12 */
(PID.TID 0000.0001)                 3.786015718893625E+03,      /* J = 13 */
(PID.TID 0000.0001)                 3.784849420783738E+03,      /* J = 14 */
(PID.TID 0000.0001)                 3.783683122673851E+03,      /* J = 15 */
(PID.TID 0000.0001)                 3.782622851664863E+03,      /* J = 16 */
(PID.TID 0000.0001)                 3.781456553554977E+03,      /* J = 17 */
(PID.TID 0000.0001)                 3.780290255445090E+03,      /* J = 18 */
(PID.TID 0000.0001)                 3.779123957335204E+03,      /* J = 19 */
(PID.TID 0000.0001)                 3.777957659225317E+03,      /* J = 20 */
(PID.TID 0000.0001)                 3.776791361115431E+03,      /* J = 21 */
(PID.TID 0000.0001)                 3.775731090106443E+03,      /* J = 22 */
(PID.TID 0000.0001)                 3.774564791996556E+03,      /* J = 23 */
(PID.TID 0000.0001)                 3.773398493886670E+03,      /* J = 24 */
(PID.TID 0000.0001)                 3.772338222877682E+03,      /* J = 25 */
(PID.TID 0000.0001)                 3.771171924767795E+03,      /* J = 26 */
(PID.TID 0000.0001)                 3.769899599557010E+03,      /* J = 27 */
(PID.TID 0000.0001)                 3.768839328548022E+03       /* J = 28 */
(PID.TID 0000.0001)     ;
(PID.TID 0000.0001) dxV =  /* dxV(:,1,:,1) ( units: m ) */
(PID.TID 0000.0001)   330 @  4.132792266102490E+03              /* I =  1:330 */
(PID.TID 0000.0001)     ;
(PID.TID 0000.0001) dxV =  /* dxV(1,:,1,:) ( units: m ) */
(PID.TID 0000.0001)                 4.132792266102490E+03,      /* J =  1 */
(PID.TID 0000.0001)                 4.131543523884096E+03,      /* J =  2 */
(PID.TID 0000.0001)                 4.130293661329000E+03,      /* J =  3 */
(PID.TID 0000.0001)                 4.129042680111336E+03,      /* J =  4 */
(PID.TID 0000.0001)                 4.127790651895232E+03,      /* J =  5 */
(PID.TID 0000.0001)                 4.126537508526810E+03,      /* J =  6 */
(PID.TID 0000.0001)                 4.125283251678356E+03,      /* J =  7 */
(PID.TID 0000.0001)                 4.124027953257525E+03,      /* J =  8 */
(PID.TID 0000.0001)                 4.122771544862921E+03,      /* J =  9 */
(PID.TID 0000.0001)                 4.121514028164970E+03,      /* J = 10 */
(PID.TID 0000.0001)                 4.120255475314408E+03,      /* J = 11 */
(PID.TID 0000.0001)                 4.118995817662741E+03,      /* J = 12 */
(PID.TID 0000.0001)                 4.117735127522450E+03,      /* J = 13 */
(PID.TID 0000.0001)                 4.116473265355150E+03,      /* J = 14 */
(PID.TID 0000.0001)                 4.115210445004191E+03,      /* J = 15 */
(PID.TID 0000.0001)                 4.113946455960185E+03,      /* J = 16 */
(PID.TID 0000.0001)                 4.112681441584010E+03,      /* J = 17 */
(PID.TID 0000.0001)                 4.111415332734301E+03,      /* J = 18 */
(PID.TID 0000.0001)                 4.110148202207719E+03,      /* J = 19 */
(PID.TID 0000.0001)                 4.108879980698939E+03,      /* J = 20 */
(PID.TID 0000.0001)                 4.107610741165563E+03,      /* J = 21 */
(PID.TID 0000.0001)                 4.106340414138508E+03,      /* J = 22 */
(PID.TID 0000.0001)                 4.105069001279958E+03,      /* J = 23 */
(PID.TID 0000.0001)                 4.103796575788615E+03,      /* J = 24 */
(PID.TID 0000.0001)                 4.102523067950195E+03,      /* J = 25 */
(PID.TID 0000.0001)                 4.101248479424976E+03,      /* J = 26 */
(PID.TID 0000.0001)                 4.099972883652305E+03,      /* J = 27 */
(PID.TID 0000.0001)                 4.098696282533544E+03       /* J = 28 */
(PID.TID 0000.0001)     ;
(PID.TID 0000.0001) dyU =  /* dyU(:,1,:,1) ( units: m ) */
(PID.TID 0000.0001)   330 @  3.463587305060435E+03              /* I =  1:330 */
(PID.TID 0000.0001)     ;
(PID.TID 0000.0001) dyU =  /* dyU(1,:,1,:) ( units: m ) */
(PID.TID 0000.0001)                 3.463587305060435E+03,      /* J =  1 */
(PID.TID 0000.0001)                 3.798420889698782E+03,      /* J =  2 */
(PID.TID 0000.0001)                 3.797360618689794E+03,      /* J =  3 */
(PID.TID 0000.0001)                 3.796194320579908E+03,      /* J =  4 */
(PID.TID 0000.0001)                 3.795028022470021E+03,      /* J =  5 */
(PID.TID 0000.0001)                 3.793967751461033E+03,      /* J =  6 */
(PID.TID 0000.0001)                 3.792801453351146E+03,      /* J =  7 */
(PID.TID 0000.0001)                 3.791635155241260E+03,      /* J =  8 */
(PID.TID 0000.0001)                 3.790574884232272E+03,      /* J =  9 */
(PID.TID 0000.0001)                 3.789408586122385E+03,      /* J = 10 */
(PID.TID 0000.0001)                 3.788242288012499E+03,      /* J = 11 */
(PID.TID 0000.0001)                 3.787075989902612E+03,      /* J = 12 */
(PID.TID 0000.0001)                 3.786015718893625E+03,      /* J = 13 */
(PID.TID 0000.0001)                 3.784849420783738E+03,      /* J = 14 */
(PID.TID 0000.0001)                 3.783683122673851E+03,      /* J = 15 */
(PID.TID 0000.0001)                 3.782622851664863E+03,      /* J = 16 */
(PID.TID 0000.0001)                 3.781456553554977E+03,      /* J = 17 */
(PID.TID 0000.0001)                 3.780290255445090E+03,      /* J = 18 */
(PID.TID 0000.0001)                 3.779123957335204E+03,      /* J = 19 */
(PID.TID 0000.0001)                 3.777957659225317E+03,      /* J = 20 */
(PID.TID 0000.0001)                 3.776791361115431E+03,      /* J = 21 */
(PID.TID 0000.0001)                 3.775731090106443E+03,      /* J = 22 */
(PID.TID 0000.0001)                 3.774564791996556E+03,      /* J = 23 */
(PID.TID 0000.0001)                 3.773398493886670E+03,      /* J = 24 */
(PID.TID 0000.0001)                 3.772338222877682E+03,      /* J = 25 */
(PID.TID 0000.0001)                 3.771171924767795E+03,      /* J = 26 */
(PID.TID 0000.0001)                 3.769899599557010E+03,      /* J = 27 */
(PID.TID 0000.0001)                 3.768839328548022E+03       /* J = 28 */
(PID.TID 0000.0001)     ;
(PID.TID 0000.0001) rA  =  /* rA (:,1,:,1) ( units: m^2 ) */
(PID.TID 0000.0001)   330 @  1.569790392627073E+07              /* I =  1:330 */
(PID.TID 0000.0001)     ;
(PID.TID 0000.0001) rA  =  /* rA (1,:,1,:) ( units: m^2 ) */
(PID.TID 0000.0001)                 1.569790392627073E+07,      /* J =  1 */
(PID.TID 0000.0001)                 1.568877799393386E+07,      /* J =  2 */
(PID.TID 0000.0001)                 1.567965046024477E+07,      /* J =  3 */
(PID.TID 0000.0001)                 1.566964601977351E+07,      /* J =  4 */
(PID.TID 0000.0001)                 1.566051584459966E+07,      /* J =  5 */
(PID.TID 0000.0001)                 1.565138409849535E+07,      /* J =  6 */
(PID.TID 0000.0001)                 1.564137627390480E+07,      /* J =  7 */
(PID.TID 0000.0001)                 1.563224194845815E+07,      /* J =  8 */
(PID.TID 0000.0001)                 1.562310608242249E+07,      /* J =  9 */
(PID.TID 0000.0001)                 1.561309496816712E+07,      /* J = 10 */
(PID.TID 0000.0001)                 1.560395658474481E+07,      /* J = 11 */
(PID.TID 0000.0001)                 1.559394350794555E+07,      /* J = 12 */
(PID.TID 0000.0001)                 1.558567556425542E+07,      /* J = 13 */
(PID.TID 0000.0001)                 1.557478738418195E+07,      /* J = 14 */
(PID.TID 0000.0001)                 1.556651647028628E+07,      /* J = 15 */
(PID.TID 0000.0001)                 1.555649905915226E+07,      /* J = 16 */
(PID.TID 0000.0001)                 1.554735283576100E+07,      /* J = 17 */
(PID.TID 0000.0001)                 1.553733358804201E+07,      /* J = 18 */
(PID.TID 0000.0001)                 1.552818501201680E+07,      /* J = 19 */
(PID.TID 0000.0001)                 1.551816396996124E+07,      /* J = 20 */
(PID.TID 0000.0001)                 1.550901308262007E+07,      /* J = 21 */
(PID.TID 0000.0001)                 1.549986078553674E+07,      /* J = 22 */
(PID.TID 0000.0001)                 1.548983686113863E+07,      /* J = 23 */
(PID.TID 0000.0001)                 1.548068231387437E+07,      /* J = 24 */
(PID.TID 0000.0001)                 1.547152638671146E+07,      /* J = 25 */
(PID.TID 0000.0001)                 1.546149967288220E+07,      /* J = 26 */
(PID.TID 0000.0001)                 1.545147241072469E+07,      /* J = 27 */
(PID.TID 0000.0001)                 1.544318236089779E+07       /* J = 28 */
(PID.TID 0000.0001)     ;
(PID.TID 0000.0001) rAw =  /* rAw(:,1,:,1) ( units: m^2 ) */
(PID.TID 0000.0001)   330 @  1.569790392627073E+07              /* I =  1:330 */
(PID.TID 0000.0001)     ;
(PID.TID 0000.0001) rAw =  /* rAw(1,:,1,:) ( units: m^2 ) */
(PID.TID 0000.0001)                 1.569790392627073E+07,      /* J =  1 */
(PID.TID 0000.0001)                 1.568877799393386E+07,      /* J =  2 */
(PID.TID 0000.0001)                 1.567965046024477E+07,      /* J =  3 */
(PID.TID 0000.0001)                 1.566964601977351E+07,      /* J =  4 */
(PID.TID 0000.0001)                 1.566051584459966E+07,      /* J =  5 */
(PID.TID 0000.0001)                 1.565138409849535E+07,      /* J =  6 */
(PID.TID 0000.0001)                 1.564137627390480E+07,      /* J =  7 */
(PID.TID 0000.0001)                 1.563224194845815E+07,      /* J =  8 */
(PID.TID 0000.0001)                 1.562310608242249E+07,      /* J =  9 */
(PID.TID 0000.0001)                 1.561309496816712E+07,      /* J = 10 */
(PID.TID 0000.0001)                 1.560395658474481E+07,      /* J = 11 */
(PID.TID 0000.0001)                 1.559394350794555E+07,      /* J = 12 */
(PID.TID 0000.0001)                 1.558567556425542E+07,      /* J = 13 */
(PID.TID 0000.0001)                 1.557478738418195E+07,      /* J = 14 */
(PID.TID 0000.0001)                 1.556651647028628E+07,      /* J = 15 */
(PID.TID 0000.0001)                 1.555649905915226E+07,      /* J = 16 */
(PID.TID 0000.0001)                 1.554735283576100E+07,      /* J = 17 */
(PID.TID 0000.0001)                 1.553733358804201E+07,      /* J = 18 */
(PID.TID 0000.0001)                 1.552818501201680E+07,      /* J = 19 */
(PID.TID 0000.0001)                 1.551816396996124E+07,      /* J = 20 */
(PID.TID 0000.0001)                 1.550901308262007E+07,      /* J = 21 */
(PID.TID 0000.0001)                 1.549986078553674E+07,      /* J = 22 */
(PID.TID 0000.0001)                 1.548983686113863E+07,      /* J = 23 */
(PID.TID 0000.0001)                 1.548068231387437E+07,      /* J = 24 */
(PID.TID 0000.0001)                 1.547152638671146E+07,      /* J = 25 */
(PID.TID 0000.0001)                 1.546149967288220E+07,      /* J = 26 */
(PID.TID 0000.0001)                 1.545147241072469E+07,      /* J = 27 */
(PID.TID 0000.0001)                 1.544318236089779E+07       /* J = 28 */
(PID.TID 0000.0001)     ;
(PID.TID 0000.0001) rAs =  /* rAs(:,1,:,1) ( units: m^2 ) */
(PID.TID 0000.0001)   330 @  1.431409585161713E+07              /* I =  1:330 */
(PID.TID 0000.0001)     ;
(PID.TID 0000.0001) rAs =  /* rAs(1,:,1,:) ( units: m^2 ) */
(PID.TID 0000.0001)                 1.431409585161713E+07,      /* J =  1 */
(PID.TID 0000.0001)                 1.569334132646529E+07,      /* J =  2 */
(PID.TID 0000.0001)                 1.568421459236220E+07,      /* J =  3 */
(PID.TID 0000.0001)                 1.567464853779548E+07,      /* J =  4 */
(PID.TID 0000.0001)                 1.566508129518095E+07,      /* J =  5 */
(PID.TID 0000.0001)                 1.565595033345175E+07,      /* J =  6 */
(PID.TID 0000.0001)                 1.564638048044906E+07,      /* J =  7 */
(PID.TID 0000.0001)                 1.563680947081621E+07,      /* J =  8 */
(PID.TID 0000.0001)                 1.562767437398903E+07,      /* J =  9 */
(PID.TID 0000.0001)                 1.561810081601708E+07,      /* J = 10 */
(PID.TID 0000.0001)                 1.560852613273763E+07,      /* J = 11 */
(PID.TID 0000.0001)                 1.559895033469148E+07,      /* J = 12 */
(PID.TID 0000.0001)                 1.558980995703406E+07,      /* J = 13 */
(PID.TID 0000.0001)                 1.558023169331755E+07,      /* J = 14 */
(PID.TID 0000.0001)                 1.557065234602267E+07,      /* J = 15 */
(PID.TID 0000.0001)                 1.556150804841762E+07,      /* J = 16 */
(PID.TID 0000.0001)                 1.555192629706736E+07,      /* J = 17 */
(PID.TID 0000.0001)                 1.554234349323534E+07,      /* J = 18 */
(PID.TID 0000.0001)                 1.553275964738865E+07,      /* J = 19 */
(PID.TID 0000.0001)                 1.552317476996653E+07,      /* J = 20 */
(PID.TID 0000.0001)                 1.551358887140660E+07,      /* J = 21 */
(PID.TID 0000.0001)                 1.550443727811980E+07,      /* J = 22 */
(PID.TID 0000.0001)                 1.549484909883272E+07,      /* J = 23 */
(PID.TID 0000.0001)                 1.548525992931114E+07,      /* J = 24 */
(PID.TID 0000.0001)                 1.547610469102710E+07,      /* J = 25 */
(PID.TID 0000.0001)                 1.546651330181840E+07,      /* J = 26 */
(PID.TID 0000.0001)                 1.545648631260958E+07,      /* J = 27 */
(PID.TID 0000.0001)                 1.544732779090657E+07       /* J = 28 */
(PID.TID 0000.0001)     ;
(PID.TID 0000.0001) globalArea = /* Integrated horizontal Area (m^2) */
(PID.TID 0000.0001)                 1.130146430983160E+13
(PID.TID 0000.0001)     ;
(PID.TID 0000.0001) // =======================================================
(PID.TID 0000.0001) // End of Model config. summary
(PID.TID 0000.0001) // =======================================================
(PID.TID 0000.0001) 
(PID.TID 0000.0001) == Packages configuration : Check & print summary ==
(PID.TID 0000.0001) 
(PID.TID 0000.0001) OBCS_CHECK: #define ALLOW_OBCS
(PID.TID 0000.0001) OBCS_CHECK: start summary:
(PID.TID 0000.0001) useOBCSprescribe = /* prescribe OB values */
(PID.TID 0000.0001)                   T
(PID.TID 0000.0001)     ;
(PID.TID 0000.0001) useOBCSbalance = /* balance the flow through OB */
(PID.TID 0000.0001)                   T
(PID.TID 0000.0001)     ;
(PID.TID 0000.0001) OBCS_balanceFacN = /* Northern OB Factor for balancing OB flow [-] */
(PID.TID 0000.0001)                -1.000000000000000E+00
(PID.TID 0000.0001)     ;
(PID.TID 0000.0001) OBCS_balanceFacS = /* Southern OB Factor for balancing OB flow [-] */
(PID.TID 0000.0001)                -1.000000000000000E+00
(PID.TID 0000.0001)     ;
(PID.TID 0000.0001) OBCS_balanceFacE = /* Eastern  OB Factor for balancing OB flow [-] */
(PID.TID 0000.0001)                 1.000000000000000E+00
(PID.TID 0000.0001)     ;
(PID.TID 0000.0001) OBCS_balanceFacW = /* Western  OB Factor for balancing OB flow [-] */
(PID.TID 0000.0001)                 1.000000000000000E+00
(PID.TID 0000.0001)     ;
(PID.TID 0000.0001) OBCS_uvApplyFac = /* Factor to apply to U,V 2nd column/row */
(PID.TID 0000.0001)                 1.000000000000000E+00
(PID.TID 0000.0001)     ;
(PID.TID 0000.0001) OBCS_u1_adv_T = /* Temp uses upwind adv-scheme @ OB */
(PID.TID 0000.0001)                       1
(PID.TID 0000.0001)     ;
(PID.TID 0000.0001) OBCS_u1_adv_S = /* Salt uses upwind adv-scheme @ OB */
(PID.TID 0000.0001)                       1
(PID.TID 0000.0001)     ;
(PID.TID 0000.0001) OBCS_monitorFreq = /* monitor output frequency [s] */
(PID.TID 0000.0001)                 2.400000000000000E+02
(PID.TID 0000.0001)     ;
(PID.TID 0000.0001) OBCS_monSelect = /* select group of variables to monitor */
(PID.TID 0000.0001)                       3
(PID.TID 0000.0001)     ;
(PID.TID 0000.0001) useOBCStides = /* apply tidal forcing through OB */
(PID.TID 0000.0001)                   T
(PID.TID 0000.0001)     ;
(PID.TID 0000.0001) tidalPeriod = /* (s) */
(PID.TID 0000.0001)                 4.471416500000000E+04,      /* I =  1 */
(PID.TID 0000.0001)                 4.320000100000000E+04,      /* I =  2 */
(PID.TID 0000.0001)                 4.557005400000000E+04,      /* I =  3 */
(PID.TID 0000.0001)                 4.308205000000000E+04,      /* I =  4 */
(PID.TID 0000.0001)                 8.616407700000000E+04,      /* I =  5 */
(PID.TID 0000.0001)                 9.294963600000000E+04,      /* I =  6 */
(PID.TID 0000.0001)                 8.663720000000000E+04,      /* I =  7 */
(PID.TID 0000.0001)                 9.672608600000000E+04,      /* I =  8 */
(PID.TID 0000.0001)                 2.235709100000000E+04,      /* I =  9 */
(PID.TID 0000.0001)                 2.197202200000000E+04,      /* I = 10 */
(PID.TID 0000.0001)                 2.256904200000000E+04,      /* I = 11 */
(PID.TID 0000.0001)                 2.380715864000000E+06,      /* I = 12 */
(PID.TID 0000.0001)                 1.180295546000000E+06       /* I = 13 */
(PID.TID 0000.0001)     ;
(PID.TID 0000.0001) OB_indexNone = /* null value for OB index (i.e. no OB) */
(PID.TID 0000.0001)                     -99
(PID.TID 0000.0001)     ;
(PID.TID 0000.0001) ======== Tile bi=   1 , bj=   1 ========
(PID.TID 0000.0001)  OB_Jn = /* Northern OB local indices */
(PID.TID 0000.0001)    41 @      -99                            /* I = -3: 37 */
(PID.TID 0000.0001)  OB_Js = /* Southern OB local indices */
(PID.TID 0000.0001)     4 @      -99,                           /* I = -3:  0 */
(PID.TID 0000.0001)    33 @        2,                           /* I =  1: 33 */
(PID.TID 0000.0001)     3 @      -99,                           /* I = 34: 36 */
(PID.TID 0000.0001)                       2                     /* I = 37 */
(PID.TID 0000.0001)  OB_Ie = /* Eastern OB local indices */
(PID.TID 0000.0001)    36 @      -99                            /* J = -3: 32 */
(PID.TID 0000.0001)  OB_Iw = /* Western OB local indices */
(PID.TID 0000.0001)    36 @      -99                            /* J = -3: 32 */
(PID.TID 0000.0001) ======== Tile bi=   2 , bj=   1 ========
(PID.TID 0000.0001)  OB_Jn = /* Northern OB local indices */
(PID.TID 0000.0001)    41 @      -99                            /* I = -3: 37 */
(PID.TID 0000.0001)  OB_Js = /* Southern OB local indices */
(PID.TID 0000.0001)     4 @      -99,                           /* I = -3:  0 */
(PID.TID 0000.0001)    37 @        2                            /* I =  1: 37 */
(PID.TID 0000.0001)  OB_Ie = /* Eastern OB local indices */
(PID.TID 0000.0001)    36 @      -99                            /* J = -3: 32 */
(PID.TID 0000.0001)  OB_Iw = /* Western OB local indices */
(PID.TID 0000.0001)    36 @      -99                            /* J = -3: 32 */
(PID.TID 0000.0001) ======== Tile bi=   3 , bj=   1 ========
(PID.TID 0000.0001)  OB_Jn = /* Northern OB local indices */
(PID.TID 0000.0001)    41 @      -99                            /* I = -3: 37 */
(PID.TID 0000.0001)  OB_Js = /* Southern OB local indices */
(PID.TID 0000.0001)    41 @        2                            /* I = -3: 37 */
(PID.TID 0000.0001)  OB_Ie = /* Eastern OB local indices */
(PID.TID 0000.0001)    36 @      -99                            /* J = -3: 32 */
(PID.TID 0000.0001)  OB_Iw = /* Western OB local indices */
(PID.TID 0000.0001)    36 @      -99                            /* J = -3: 32 */
(PID.TID 0000.0001) ======== Tile bi=   4 , bj=   1 ========
(PID.TID 0000.0001)  OB_Jn = /* Northern OB local indices */
(PID.TID 0000.0001)    41 @      -99                            /* I = -3: 37 */
(PID.TID 0000.0001)  OB_Js = /* Southern OB local indices */
(PID.TID 0000.0001)     3 @      -99,                           /* I = -3: -1 */
(PID.TID 0000.0001)    38 @        2                            /* I =  0: 37 */
(PID.TID 0000.0001)  OB_Ie = /* Eastern OB local indices */
(PID.TID 0000.0001)    36 @      -99                            /* J = -3: 32 */
(PID.TID 0000.0001)  OB_Iw = /* Western OB local indices */
(PID.TID 0000.0001)    36 @      -99                            /* J = -3: 32 */
(PID.TID 0000.0001) ======== Tile bi=   5 , bj=   1 ========
(PID.TID 0000.0001)  OB_Jn = /* Northern OB local indices */
(PID.TID 0000.0001)    41 @      -99                            /* I = -3: 37 */
(PID.TID 0000.0001)  OB_Js = /* Southern OB local indices */
(PID.TID 0000.0001)    41 @        2                            /* I = -3: 37 */
(PID.TID 0000.0001)  OB_Ie = /* Eastern OB local indices */
(PID.TID 0000.0001)    36 @      -99                            /* J = -3: 32 */
(PID.TID 0000.0001)  OB_Iw = /* Western OB local indices */
(PID.TID 0000.0001)    36 @      -99                            /* J = -3: 32 */
(PID.TID 0000.0001) ======== Tile bi=   6 , bj=   1 ========
(PID.TID 0000.0001)  OB_Jn = /* Northern OB local indices */
(PID.TID 0000.0001)    41 @      -99                            /* I = -3: 37 */
(PID.TID 0000.0001)  OB_Js = /* Southern OB local indices */
(PID.TID 0000.0001)    41 @        2                            /* I = -3: 37 */
(PID.TID 0000.0001)  OB_Ie = /* Eastern OB local indices */
(PID.TID 0000.0001)    36 @      -99                            /* J = -3: 32 */
(PID.TID 0000.0001)  OB_Iw = /* Western OB local indices */
(PID.TID 0000.0001)    36 @      -99                            /* J = -3: 32 */
(PID.TID 0000.0001) ======== Tile bi=   7 , bj=   1 ========
(PID.TID 0000.0001)  OB_Jn = /* Northern OB local indices */
(PID.TID 0000.0001)    41 @      -99                            /* I = -3: 37 */
(PID.TID 0000.0001)  OB_Js = /* Southern OB local indices */
(PID.TID 0000.0001)    41 @        2                            /* I = -3: 37 */
(PID.TID 0000.0001)  OB_Ie = /* Eastern OB local indices */
(PID.TID 0000.0001)    36 @      -99                            /* J = -3: 32 */
(PID.TID 0000.0001)  OB_Iw = /* Western OB local indices */
(PID.TID 0000.0001)    36 @      -99                            /* J = -3: 32 */
(PID.TID 0000.0001) ======== Tile bi=   8 , bj=   1 ========
(PID.TID 0000.0001)  OB_Jn = /* Northern OB local indices */
(PID.TID 0000.0001)    41 @      -99                            /* I = -3: 37 */
(PID.TID 0000.0001)  OB_Js = /* Southern OB local indices */
(PID.TID 0000.0001)    41 @        2                            /* I = -3: 37 */
(PID.TID 0000.0001)  OB_Ie = /* Eastern OB local indices */
(PID.TID 0000.0001)    36 @      -99                            /* J = -3: 32 */
(PID.TID 0000.0001)  OB_Iw = /* Western OB local indices */
(PID.TID 0000.0001)    36 @      -99                            /* J = -3: 32 */
(PID.TID 0000.0001) ======== Tile bi=   9 , bj=   1 ========
(PID.TID 0000.0001)  OB_Jn = /* Northern OB local indices */
(PID.TID 0000.0001)    41 @      -99                            /* I = -3: 37 */
(PID.TID 0000.0001)  OB_Js = /* Southern OB local indices */
(PID.TID 0000.0001)    41 @        2                            /* I = -3: 37 */
(PID.TID 0000.0001)  OB_Ie = /* Eastern OB local indices */
(PID.TID 0000.0001)    36 @      -99                            /* J = -3: 32 */
(PID.TID 0000.0001)  OB_Iw = /* Western OB local indices */
(PID.TID 0000.0001)    36 @      -99                            /* J = -3: 32 */
(PID.TID 0000.0001) ======== Tile bi=  10 , bj=   1 ========
(PID.TID 0000.0001)  OB_Jn = /* Northern OB local indices */
(PID.TID 0000.0001)    41 @      -99                            /* I = -3: 37 */
(PID.TID 0000.0001)  OB_Js = /* Southern OB local indices */
(PID.TID 0000.0001)    41 @        2                            /* I = -3: 37 */
(PID.TID 0000.0001)  OB_Ie = /* Eastern OB local indices */
(PID.TID 0000.0001)    36 @      -99                            /* J = -3: 32 */
(PID.TID 0000.0001)  OB_Iw = /* Western OB local indices */
(PID.TID 0000.0001)    36 @      -99                            /* J = -3: 32 */
(PID.TID 0000.0001) OBCS_CHECK: end summary.
(PID.TID 0000.0001) OBCS_CHECK: set-up OK
(PID.TID 0000.0001) OBCS_CHECK: check Inside Mask and OB locations: OK
(PID.TID 0000.0001) KPP_CHECK: #define ALLOW_KPP
(PID.TID 0000.0001)  kpp_freq = /* frequency of KPP calculation */
(PID.TID 0000.0001)                 2.400000000000000E+02
(PID.TID 0000.0001)     ;
(PID.TID 0000.0001) KPP_ghatUseTotalDiffus= /* non-local term fct of total diffus */
(PID.TID 0000.0001)                   F
(PID.TID 0000.0001)     ;
(PID.TID 0000.0001) KPPuseDoubleDiff = /* include double diffusive contrib */
(PID.TID 0000.0001)                   F
(PID.TID 0000.0001)     ;
(PID.TID 0000.0001) LimitHblStable = /* limits depth of hbl if stable cond.*/
(PID.TID 0000.0001)                   T
(PID.TID 0000.0001)     ;
(PID.TID 0000.0001)  minKPPhbl = /* minimum KPPhbl value [m] */
(PID.TID 0000.0001)                 2.500000000000000E+00
(PID.TID 0000.0001)     ;
(PID.TID 0000.0001)  epsln     = /* constant [-] */
(PID.TID 0000.0001)                 9.999999999999999E-21
(PID.TID 0000.0001)     ;
(PID.TID 0000.0001)  phepsi    = /* constant [-] */
(PID.TID 0000.0001)                 1.000000000000000E-10
(PID.TID 0000.0001)     ;
(PID.TID 0000.0001)  epsilon   = /* constant [-] */
(PID.TID 0000.0001)                 1.000000000000000E-01
(PID.TID 0000.0001)     ;
(PID.TID 0000.0001)  vonk      = /* Von Karmans constant [-] */
(PID.TID 0000.0001)                 4.000000000000000E-01
(PID.TID 0000.0001)     ;
(PID.TID 0000.0001)  dB_dz     = /* maximum N^2 in mixed layer [s^-2] */
(PID.TID 0000.0001)                 5.200000000000000E-05
(PID.TID 0000.0001)     ;
(PID.TID 0000.0001)  conc1     = /* scalar constant [-] */
(PID.TID 0000.0001)                 5.000000000000000E+00
(PID.TID 0000.0001)     ;
(PID.TID 0000.0001)  conam     = /* scalar constant [-] */
(PID.TID 0000.0001)                 1.257000000000000E+00
(PID.TID 0000.0001)     ;
(PID.TID 0000.0001)  concm     = /* scalar constant [-] */
(PID.TID 0000.0001)                 8.380000000000001E+00
(PID.TID 0000.0001)     ;
(PID.TID 0000.0001)  conc2     = /* scalar constant [-] */
(PID.TID 0000.0001)                 1.600000000000000E+01
(PID.TID 0000.0001)     ;
(PID.TID 0000.0001)  conas     = /* scalar constant [-] */
(PID.TID 0000.0001)                -2.886000000000000E+01
(PID.TID 0000.0001)     ;
(PID.TID 0000.0001)  concs     = /* scalar constant [-] */
(PID.TID 0000.0001)                 9.895999999999999E+01
(PID.TID 0000.0001)     ;
(PID.TID 0000.0001)  conc3     = /* scalar constant [-] */
(PID.TID 0000.0001)                 1.600000000000000E+01
(PID.TID 0000.0001)     ;
(PID.TID 0000.0001)  zetam     = /* scalar constant [-] */
(PID.TID 0000.0001)                -2.000000000000000E-01
(PID.TID 0000.0001)     ;
(PID.TID 0000.0001)  zetas     = /* scalar constant [-] */
(PID.TID 0000.0001)                -1.000000000000000E+00
(PID.TID 0000.0001)     ;
(PID.TID 0000.0001)  Ricr      = /* critical bulk Richardson Number [-] */
(PID.TID 0000.0001)                 3.000000000000000E-01
(PID.TID 0000.0001)     ;
(PID.TID 0000.0001)  cekman    = /* coeff for Ekman depth [-] */
(PID.TID 0000.0001)                 7.000000000000000E-01
(PID.TID 0000.0001)     ;
(PID.TID 0000.0001)  cmonob    = /* coeff for Monin-Obukhov depth [-] */
(PID.TID 0000.0001)                 1.000000000000000E+00
(PID.TID 0000.0001)     ;
(PID.TID 0000.0001)  concv     = /* buoyancy freq ratio [-] */
(PID.TID 0000.0001)                 1.800000000000000E+00
(PID.TID 0000.0001)     ;
(PID.TID 0000.0001)  hbf       = /* solar radiation depth ratio [-] */
(PID.TID 0000.0001)                 1.000000000000000E+00
(PID.TID 0000.0001)     ;
(PID.TID 0000.0001)  zmin      = /* minimum for zehat in table [m3/s3] */
(PID.TID 0000.0001)                -4.000000000000000E-07
(PID.TID 0000.0001)     ;
(PID.TID 0000.0001)  zmax      = /* maximum for zehat in table [m3/s3] */
(PID.TID 0000.0001)                 0.000000000000000E+00
(PID.TID 0000.0001)     ;
(PID.TID 0000.0001)  umin      = /* minimum for ustar in table [m/s] */
(PID.TID 0000.0001)                 0.000000000000000E+00
(PID.TID 0000.0001)     ;
(PID.TID 0000.0001)  umax      = /* maximum for ustar in table [m/s] */
(PID.TID 0000.0001)                 4.000000000000000E-02
(PID.TID 0000.0001)     ;
(PID.TID 0000.0001) num_v_smooth_Ri = /* number of vertical smoothing */
(PID.TID 0000.0001)                       0
(PID.TID 0000.0001)     ;
(PID.TID 0000.0001)  Riinfty   = /* shear instability Ri number limit [-] */
(PID.TID 0000.0001)                 7.000000000000000E-01
(PID.TID 0000.0001)     ;
(PID.TID 0000.0001)  BVSQcon   = /* Brunt-Vaisala squared (=N^2) [s^-2] */
(PID.TID 0000.0001)                -2.000000000000000E-05
(PID.TID 0000.0001)     ;
(PID.TID 0000.0001)  difm0     = /* max viscosity from shear instab. [m2/s] */
(PID.TID 0000.0001)                 5.000000000000000E-03
(PID.TID 0000.0001)     ;
(PID.TID 0000.0001)  difs0     = /* max diffusiv. from shear instab. [m2/s] */
(PID.TID 0000.0001)                 5.000000000000000E-03
(PID.TID 0000.0001)     ;
(PID.TID 0000.0001)  dift0     = /* max diffusiv. from shear instab. [m2/s] */
(PID.TID 0000.0001)                 5.000000000000000E-03
(PID.TID 0000.0001)     ;
(PID.TID 0000.0001)  difmcon   = /* convective viscosity [m2/s] */
(PID.TID 0000.0001)                 1.000000000000000E-01
(PID.TID 0000.0001)     ;
(PID.TID 0000.0001)  difscon   = /* convective diffusiv. [m2/s] */
(PID.TID 0000.0001)                 1.000000000000000E-01
(PID.TID 0000.0001)     ;
(PID.TID 0000.0001)  diftcon   = /* convective diffusiv. [m2/s] */
(PID.TID 0000.0001)                 1.000000000000000E-01
(PID.TID 0000.0001)     ;
(PID.TID 0000.0001)  Rrho0     = /* double diffusion density ratio [-] */
(PID.TID 0000.0001)                 1.900000000000000E+00
(PID.TID 0000.0001)     ;
(PID.TID 0000.0001)  dsfmax    = /* max diffusiv. for salt fingering [m2/s] */
(PID.TID 0000.0001)                 1.000000000000000E-02
(PID.TID 0000.0001)     ;
(PID.TID 0000.0001)  cstar     = /* coeff for non-locak transport [-] */
(PID.TID 0000.0001)                 1.000000000000000E+01
(PID.TID 0000.0001)     ;
(PID.TID 0000.0001) KPPwriteState = /* write KPP fields to file */
(PID.TID 0000.0001)                   F
(PID.TID 0000.0001)     ;
(PID.TID 0000.0001)  kpp_dumpFreq = /* dump freq of KPP output */
(PID.TID 0000.0001)                 0.000000000000000E+00
(PID.TID 0000.0001)     ;
(PID.TID 0000.0001)  kpp_taveFreq = /* time-averaging freq of KPP output */
(PID.TID 0000.0001)                 0.000000000000000E+00
(PID.TID 0000.0001)     ;
(PID.TID 0000.0001) 
(PID.TID 0000.0001) EXF_CHECK: #define ALLOW_EXF
(PID.TID 0000.0001) GAD_CHECK: #define ALLOW_GENERIC_ADVDIFF
(PID.TID 0000.0001) // =======================================================
(PID.TID 0000.0001) // Check Model config. (CONFIG_CHECK):
(PID.TID 0000.0001) // CONFIG_CHECK : Normal End
(PID.TID 0000.0001) // =======================================================
(PID.TID 0000.0001) 
(PID.TID 0000.0001)  MDS_READ_FIELD: opening global file: U0_1815x532x100.bin
(PID.TID 0000.0001)  MDS_READ_FIELD: opening global file: V0_1815x532x100.bin
(PID.TID 0000.0001)  MDS_READ_FIELD: opening global file: T0_1815x532x100.bin
(PID.TID 0000.0001)  MDS_READ_FIELD: opening global file: S0_1815x532x100.bin
(PID.TID 0000.0001) Start initial hydrostatic pressure computation
(PID.TID 0000.0001) Pressure is predetermined for buoyancyRelation OCEANIC
(PID.TID 0000.0001) 
(PID.TID 0000.0001)  write diagnostics summary to file ioUnit:      6
Iter.Nb:         0 ; Time(s):  0.0000000000000E+00
------------------------------------------------------------------------
2D/3D diagnostics: Number of lists:     2
------------------------------------------------------------------------
listId=    1 ; file name: diags/surface
 nFlds, nActive,       freq     &     phase        , nLev               
    5  |    5  |      3600.000000         0.000000 |   1
 levels:   1
 diag# | name   |   ipt  |  iMate | kLev|   count |   mate.C|           
    23 |ETAN    |      1 |      0 |   1 |       0 |
    80 |oceTAUX |      2 |      3 |   1 |       0 |       0 |
    81 |oceTAUY |      3 |      2 |   1 |       0 |       0 |
   185 |EXFuwind|      4 |      0 |   1 |       0 |
   186 |EXFvwind|      5 |      0 |   1 |       0 |
------------------------------------------------------------------------
listId=    2 ; file name: diags/interior
 nFlds, nActive,       freq     &     phase        , nLev               
    9  |    9  |   2592000.000000         0.000000 | 100
 levels:   1   2   3   4   5   6   7   8   9  10  11  12  13  14  15  16  17  18  19  20  21  22  23  24  25
 levels:  26  27  28  29  30  31  32  33  34  35  36  37  38  39  40  41  42  43  44  45  46  47  48  49  50
 levels:  51  52  53  54  55  56  57  58  59  60  61  62  63  64  65  66  67  68  69  70  71  72  73  74  75
 levels:  76  77  78  79  80  81  82  83  84  85  86  87  88  89  90  91  92  93  94  95  96  97  98  99 100
 diag# | name   |   ipt  |  iMate | kLev|   count |   mate.C|           
    26 |THETA   |      6 |      0 | 100 |       0 |
    27 |SALT    |    106 |      0 | 100 |       0 |
    30 |UVEL    |    206 |    306 | 100 |       0 |       0 |
    31 |VVEL    |    306 |    206 | 100 |       0 |       0 |
    32 |WVEL    |    406 |      0 | 100 |       0 |
    36 |UVELSQ  |    506 |    606 | 100 |       0 |       0 |
    37 |VVELSQ  |    606 |    506 | 100 |       0 |       0 |
    52 |WTHMASS |    706 |      0 | 100 |       0 |
    55 |WSLTMASS|    806 |      0 | 100 |       0 |
------------------------------------------------------------------------
Global & Regional Statistics diagnostics: Number of lists:     0
------------------------------------------------------------------------
(PID.TID 0000.0001)  MDS_READ_SEC_XZ: opening global file: OBNvam_1815x13.bin
(PID.TID 0000.0001)  MDS_READ_SEC_XZ: opening global file: OBNvph_1815x13.bin
(PID.TID 0000.0001)  MDS_READ_SEC_XZ: opening global file: OBSvam_1815x13.bin
(PID.TID 0000.0001)  MDS_READ_SEC_XZ: opening global file: OBSvph_1815x13.bin
(PID.TID 0000.0001)  MDS_READ_SEC_XZ: opening global file: OBNu_1815x100x12.bin
(PID.TID 0000.0001)  MDS_READ_SEC_XZ: opening global file: OBNu_1815x100x12.bin
(PID.TID 0000.0001)  MDS_READ_SEC_XZ: opening global file: OBNv_1815x100x12.bin
(PID.TID 0000.0001)  MDS_READ_SEC_XZ: opening global file: OBNv_1815x100x12.bin
(PID.TID 0000.0001)  MDS_READ_SEC_XZ: opening global file: OBNt_1815x100x12.bin
(PID.TID 0000.0001)  MDS_READ_SEC_XZ: opening global file: OBNt_1815x100x12.bin
(PID.TID 0000.0001)  MDS_READ_SEC_XZ: opening global file: OBNs_1815x100x12.bin
(PID.TID 0000.0001)  MDS_READ_SEC_XZ: opening global file: OBNs_1815x100x12.bin
(PID.TID 0000.0001)  MDS_READ_SEC_XZ: opening global file: OBSu_1815x100x12.bin
(PID.TID 0000.0001)  MDS_READ_SEC_XZ: opening global file: OBSu_1815x100x12.bin
(PID.TID 0000.0001)  MDS_READ_SEC_XZ: opening global file: OBSv_1815x100x12.bin
(PID.TID 0000.0001)  MDS_READ_SEC_XZ: opening global file: OBSv_1815x100x12.bin
(PID.TID 0000.0001)  MDS_READ_SEC_XZ: opening global file: OBSt_1815x100x12.bin
(PID.TID 0000.0001)  MDS_READ_SEC_XZ: opening global file: OBSt_1815x100x12.bin
(PID.TID 0000.0001)  MDS_READ_SEC_XZ: opening global file: OBSs_1815x100x12.bin
(PID.TID 0000.0001)  MDS_READ_SEC_XZ: opening global file: OBSs_1815x100x12.bin
(PID.TID 0000.0001) // =======================================================
(PID.TID 0000.0001) // Model current state
(PID.TID 0000.0001) // =======================================================
(PID.TID 0000.0001) 
(PID.TID 0000.0001) // =======================================================
(PID.TID 0000.0001) // Begin MONITOR dynamic field statistics
(PID.TID 0000.0001) // =======================================================
(PID.TID 0000.0001) %MON time_tsnumber                =                     0
(PID.TID 0000.0001) %MON time_secondsf                =   0.0000000000000E+00
(PID.TID 0000.0001) %MON dynstat_eta_max              =   0.0000000000000E+00
(PID.TID 0000.0001) %MON dynstat_eta_min              =   0.0000000000000E+00
(PID.TID 0000.0001) %MON dynstat_eta_mean             =   0.0000000000000E+00
(PID.TID 0000.0001) %MON dynstat_eta_sd               =   0.0000000000000E+00
(PID.TID 0000.0001) %MON dynstat_eta_del2             =   0.0000000000000E+00
(PID.TID 0000.0001) %MON dynstat_uvel_max             =   5.2282792329788E-01
(PID.TID 0000.0001) %MON dynstat_uvel_min             =  -2.2802972793579E-01
(PID.TID 0000.0001) %MON dynstat_uvel_mean            =   1.1600008936578E-04
(PID.TID 0000.0001) %MON dynstat_uvel_sd              =   1.6676261691855E-02
(PID.TID 0000.0001) %MON dynstat_uvel_del2            =   4.6712532479212E-08
(PID.TID 0000.0001) %MON dynstat_vvel_max             =   6.5957897901535E-01
(PID.TID 0000.0001) %MON dynstat_vvel_min             =  -6.2243117340707E-01
(PID.TID 0000.0001) %MON dynstat_vvel_mean            =  -6.2816513381596E-05
(PID.TID 0000.0001) %MON dynstat_vvel_sd              =   1.6020413969857E-02
(PID.TID 0000.0001) %MON dynstat_vvel_del2            =   1.8505092227249E-07
(PID.TID 0000.0001) %MON dynstat_wvel_max             =   1.9387473555717E-02
(PID.TID 0000.0001) %MON dynstat_wvel_min             =  -2.1709252770318E-02
(PID.TID 0000.0001) %MON dynstat_wvel_mean            =  -1.0345223133915E-05
(PID.TID 0000.0001) %MON dynstat_wvel_sd              =   3.9551965045429E-04
(PID.TID 0000.0001) %MON dynstat_wvel_del2            =   1.3106928200883E-07
(PID.TID 0000.0001) %MON dynstat_theta_max            =   2.5560295104980E+01
(PID.TID 0000.0001) %MON dynstat_theta_min            =   1.4441539049149E+00
(PID.TID 0000.0001) %MON dynstat_theta_mean           =   5.5933569374255E+00
(PID.TID 0000.0001) %MON dynstat_theta_sd             =   4.7972846994262E+00
(PID.TID 0000.0001) %MON dynstat_theta_del2           =   1.4477784054120E-06
(PID.TID 0000.0001) %MON dynstat_salt_max             =   3.8136505126953E+01
(PID.TID 0000.0001) %MON dynstat_salt_min             =   3.0527397155762E+01
(PID.TID 0000.0001) %MON dynstat_salt_mean            =   3.5189811980530E+01
(PID.TID 0000.0001) %MON dynstat_salt_sd              =   4.6939529264515E-01
(PID.TID 0000.0001) %MON dynstat_salt_del2            =   2.6922698691954E-07
(PID.TID 0000.0001) %MON forcing_qnet_max             =   0.0000000000000E+00
(PID.TID 0000.0001) %MON forcing_qnet_min             =   0.0000000000000E+00
(PID.TID 0000.0001) %MON forcing_qnet_mean            =   0.0000000000000E+00
(PID.TID 0000.0001) %MON forcing_qnet_sd              =   0.0000000000000E+00
(PID.TID 0000.0001) %MON forcing_qnet_del2            =   0.0000000000000E+00
(PID.TID 0000.0001) %MON forcing_qsw_max              =   0.0000000000000E+00
(PID.TID 0000.0001) %MON forcing_qsw_min              =   0.0000000000000E+00
(PID.TID 0000.0001) %MON forcing_qsw_mean             =   0.0000000000000E+00
(PID.TID 0000.0001) %MON forcing_qsw_sd               =   0.0000000000000E+00
(PID.TID 0000.0001) %MON forcing_qsw_del2             =   0.0000000000000E+00
(PID.TID 0000.0001) %MON forcing_empmr_max            =   0.0000000000000E+00
(PID.TID 0000.0001) %MON forcing_empmr_min            =   0.0000000000000E+00
(PID.TID 0000.0001) %MON forcing_empmr_mean           =   0.0000000000000E+00
(PID.TID 0000.0001) %MON forcing_empmr_sd             =   0.0000000000000E+00
(PID.TID 0000.0001) %MON forcing_empmr_del2           =   0.0000000000000E+00
(PID.TID 0000.0001) %MON forcing_fu_max               =   0.0000000000000E+00
(PID.TID 0000.0001) %MON forcing_fu_min               =   0.0000000000000E+00
(PID.TID 0000.0001) %MON forcing_fu_mean              =   0.0000000000000E+00
(PID.TID 0000.0001) %MON forcing_fu_sd                =   0.0000000000000E+00
(PID.TID 0000.0001) %MON forcing_fu_del2              =   0.0000000000000E+00
(PID.TID 0000.0001) %MON forcing_fv_max               =   0.0000000000000E+00
(PID.TID 0000.0001) %MON forcing_fv_min               =   0.0000000000000E+00
(PID.TID 0000.0001) %MON forcing_fv_mean              =   0.0000000000000E+00
(PID.TID 0000.0001) %MON forcing_fv_sd                =   0.0000000000000E+00
(PID.TID 0000.0001) %MON forcing_fv_del2              =   0.0000000000000E+00
(PID.TID 0000.0001) %MON trAdv_CFL_u_max              =   0.0000000000000E+00
(PID.TID 0000.0001) %MON trAdv_CFL_v_max              =   0.0000000000000E+00
(PID.TID 0000.0001) %MON trAdv_CFL_w_max              =   0.0000000000000E+00
(PID.TID 0000.0001) %MON advcfl_uvel_max              =   3.3036797041732E-02
(PID.TID 0000.0001) %MON advcfl_vvel_max              =   4.7740509353398E-02
(PID.TID 0000.0001) %MON advcfl_wvel_max              =   2.0840882659505E+00
(PID.TID 0000.0001) %MON advcfl_W_hf_max              =   1.0395083750012E+00
(PID.TID 0000.0001) %MON pe_b_mean                    =   0.0000000000000E+00
(PID.TID 0000.0001) %MON ke_max                       =   2.9942891548615E-01
(PID.TID 0000.0001) %MON ke_mean                      =   2.6524463444099E-04
(PID.TID 0000.0001) %MON ke_vol                       =   4.5818637279721E+16
(PID.TID 0000.0001) %MON vort_r_min                   =  -2.0623315120164E-04
(PID.TID 0000.0001) %MON vort_r_max                   =   2.8320669732846E-04
(PID.TID 0000.0001) %MON vort_a_mean                  =   8.2147589431156E-05
(PID.TID 0000.0001) %MON vort_a_sd                    =   9.7027703385154E-06
(PID.TID 0000.0001) %MON vort_p_mean                  =   8.4848809633548E-05
(PID.TID 0000.0001) %MON vort_p_sd                    =   3.5005384135508E-05
(PID.TID 0000.0001) %MON surfExpan_theta_mean         =  -3.8941978801262E-04
(PID.TID 0000.0001) %MON surfExpan_salt_mean          =  -5.6121727728180E-04
(PID.TID 0000.0001) // =======================================================
(PID.TID 0000.0001) // End MONITOR dynamic field statistics
(PID.TID 0000.0001) // =======================================================
(PID.TID 0000.0001) // =======================================================
(PID.TID 0000.0001) // Begin OBCS MONITOR field statistics
(PID.TID 0000.0001) // =======================================================
(PID.TID 0000.0001) %MON obc_N_vVel_max               =   7.5258156558910E-02
(PID.TID 0000.0001) %MON obc_N_vVel_min               =  -6.2243117340707E-01
(PID.TID 0000.0001) %MON obc_N_vVel_mean              =  -5.6547594413999E-03
(PID.TID 0000.0001) %MON obc_N_vVel_sd                =   1.6217011351513E-02
(PID.TID 0000.0001) %MON obc_N_vVel_Int               =  -8.0948359019728E+07
(PID.TID 0000.0001) %MON obc_S_vVel_max               =   6.3716974891375E-01
(PID.TID 0000.0001) %MON obc_S_vVel_min               =  -1.0809461543585E-01
(PID.TID 0000.0001) %MON obc_S_vVel_mean              =  -8.1050269612588E-03
(PID.TID 0000.0001) %MON obc_S_vVel_sd                =   2.0158139868304E-02
(PID.TID 0000.0001) %MON obc_S_vVel_Int               =  -2.4674052262793E+08
(PID.TID 0000.0001) %MON obc_N_theta_max              =   1.6146011340789E+01
(PID.TID 0000.0001) %MON obc_N_theta_min              =   1.6881754251476E+00
(PID.TID 0000.0001) %MON obc_N_theta_mean             =   5.2226067393880E+00
(PID.TID 0000.0001) %MON obc_N_theta_sd               =   3.6304230920879E+00
(PID.TID 0000.0001) %MON obc_S_theta_max              =   2.5392561389680E+01
(PID.TID 0000.0001) %MON obc_S_theta_min              =   1.5161810618896E+00
(PID.TID 0000.0001) %MON obc_S_theta_mean             =   5.4082529136101E+00
(PID.TID 0000.0001) %MON obc_S_theta_sd               =   5.1183492362358E+00
(PID.TID 0000.0001) %MON obc_N_salt_max               =   3.6395876459517E+01
(PID.TID 0000.0001) %MON obc_N_salt_min               =   3.0617469995174E+01
(PID.TID 0000.0001) %MON obc_N_salt_mean              =   3.5063771734247E+01
(PID.TID 0000.0001) %MON obc_N_salt_sd                =   3.9120235606138E-01
(PID.TID 0000.0001) %MON obc_S_salt_max               =   3.7332523925593E+01
(PID.TID 0000.0001) %MON obc_S_salt_min               =   3.4852181428757E+01
(PID.TID 0000.0001) %MON obc_S_salt_mean              =   3.5186250699819E+01
(PID.TID 0000.0001) %MON obc_S_salt_sd                =   5.1365323877213E-01
(PID.TID 0000.0001) // =======================================================
(PID.TID 0000.0001) // End OBCS MONITOR field statistics
(PID.TID 0000.0001) // =======================================================
(PID.TID 0000.0001)  EXF_INTERP_READ: opening file: era5/ERA5_u10m_2008
(PID.TID 0000.0001)  EXF_INTERP_READ: opening file: era5/ERA5_v10m_2008
(PID.TID 0000.0001)  EXF_INTERP_UV: fileU="era5/ERA5_u10m_2008", rec=     1 , x-Per,P.Sym=    T    T
(PID.TID 0000.0001)  S.edge (j=-1,0,1) : proc= 2.2 1.1 0.0, yIn=  -90.215115  -90.000000  -89.784885
(PID.TID 0000.0001)  N.edge (j=+0,+1,+2) proc= 0.0 1.1 2.2, yIn=   89.784885   90.000000   90.215115
(PID.TID 0000.0001)  EXF_INTERP_READ: opening file: era5/ERA5_u10m_2008
(PID.TID 0000.0001)  EXF_INTERP_READ: opening file: era5/ERA5_v10m_2008
(PID.TID 0000.0001)  EXF_INTERP_UV: fileU="era5/ERA5_u10m_2008", rec=     2 , x-Per,P.Sym=    T    T
(PID.TID 0000.0001)  S.edge (j=-1,0,1) : proc= 2.2 1.1 0.0, yIn=  -90.215115  -90.000000  -89.784885
(PID.TID 0000.0001)  N.edge (j=+0,+1,+2) proc= 0.0 1.1 2.2, yIn=   89.784885   90.000000   90.215115
(PID.TID 0000.0001)  EXF_INTERP_READ: opening file: era5/ERA5_tmp2m_degC_2008
(PID.TID 0000.0001)  EXF_INTERP: file="era5/ERA5_tmp2m_degC_2008", rec=     1 , x-Per,P.Sym=    T    T
(PID.TID 0000.0001)  S.edge (j=-1,0,1) : proc= 2.2 1.1 0.0, yIn=  -90.215115  -90.000000  -89.784885
(PID.TID 0000.0001)  N.edge (j=+0,+1,+2) proc= 0.0 1.1 2.2, yIn=   89.784885   90.000000   90.215115
(PID.TID 0000.0001)  EXF_INTERP_READ: opening file: era5/ERA5_tmp2m_degC_2008
(PID.TID 0000.0001)  EXF_INTERP: file="era5/ERA5_tmp2m_degC_2008", rec=     2 , x-Per,P.Sym=    T    T
(PID.TID 0000.0001)  S.edge (j=-1,0,1) : proc= 2.2 1.1 0.0, yIn=  -90.215115  -90.000000  -89.784885
(PID.TID 0000.0001)  N.edge (j=+0,+1,+2) proc= 0.0 1.1 2.2, yIn=   89.784885   90.000000   90.215115
(PID.TID 0000.0001)  EXF_INTERP_READ: opening file: era5/ERA5_spfh2m_2008
(PID.TID 0000.0001)  EXF_INTERP: file="era5/ERA5_spfh2m_2008", rec=     1 , x-Per,P.Sym=    T    T
(PID.TID 0000.0001)  S.edge (j=-1,0,1) : proc= 2.2 1.1 0.0, yIn=  -90.215115  -90.000000  -89.784885
(PID.TID 0000.0001)  N.edge (j=+0,+1,+2) proc= 0.0 1.1 2.2, yIn=   89.784885   90.000000   90.215115
(PID.TID 0000.0001)  EXF_INTERP_READ: opening file: era5/ERA5_spfh2m_2008
(PID.TID 0000.0001)  EXF_INTERP: file="era5/ERA5_spfh2m_2008", rec=     2 , x-Per,P.Sym=    T    T
(PID.TID 0000.0001)  S.edge (j=-1,0,1) : proc= 2.2 1.1 0.0, yIn=  -90.215115  -90.000000  -89.784885
(PID.TID 0000.0001)  N.edge (j=+0,+1,+2) proc= 0.0 1.1 2.2, yIn=   89.784885   90.000000   90.215115
(PID.TID 0000.0001)  EXF_INTERP_READ: opening file: era5/ERA5_rain_2007
(PID.TID 0000.0001)  EXF_INTERP: file="era5/ERA5_rain_2007", rec=  8760 , x-Per,P.Sym=    T    T
(PID.TID 0000.0001)  S.edge (j=-1,0,1) : proc= 2.2 1.1 0.0, yIn=  -90.215115  -90.000000  -89.784885
(PID.TID 0000.0001)  N.edge (j=+0,+1,+2) proc= 0.0 1.1 2.2, yIn=   89.784885   90.000000   90.215115
(PID.TID 0000.0001)  EXF_INTERP_READ: opening file: era5/ERA5_rain_2008
(PID.TID 0000.0001)  EXF_INTERP: file="era5/ERA5_rain_2008", rec=     1 , x-Per,P.Sym=    T    T
(PID.TID 0000.0001)  S.edge (j=-1,0,1) : proc= 2.2 1.1 0.0, yIn=  -90.215115  -90.000000  -89.784885
(PID.TID 0000.0001)  N.edge (j=+0,+1,+2) proc= 0.0 1.1 2.2, yIn=   89.784885   90.000000   90.215115
(PID.TID 0000.0001)  EXF_INTERP_READ: opening file: era5/ERA5_dsw_2007
(PID.TID 0000.0001)  EXF_INTERP: file="era5/ERA5_dsw_2007", rec=  8760 , x-Per,P.Sym=    T    T
(PID.TID 0000.0001)  S.edge (j=-1,0,1) : proc= 2.2 1.1 0.0, yIn=  -90.215115  -90.000000  -89.784885
(PID.TID 0000.0001)  N.edge (j=+0,+1,+2) proc= 0.0 1.1 2.2, yIn=   89.784885   90.000000   90.215115
(PID.TID 0000.0001)  EXF_INTERP_READ: opening file: era5/ERA5_dsw_2008
(PID.TID 0000.0001)  EXF_INTERP: file="era5/ERA5_dsw_2008", rec=     1 , x-Per,P.Sym=    T    T
(PID.TID 0000.0001)  S.edge (j=-1,0,1) : proc= 2.2 1.1 0.0, yIn=  -90.215115  -90.000000  -89.784885
(PID.TID 0000.0001)  N.edge (j=+0,+1,+2) proc= 0.0 1.1 2.2, yIn=   89.784885   90.000000   90.215115
(PID.TID 0000.0001)  EXF_INTERP_READ: opening file: era5/ERA5_dlw_2007
(PID.TID 0000.0001)  EXF_INTERP: file="era5/ERA5_dlw_2007", rec=  8760 , x-Per,P.Sym=    T    T
(PID.TID 0000.0001)  S.edge (j=-1,0,1) : proc= 2.2 1.1 0.0, yIn=  -90.215115  -90.000000  -89.784885
(PID.TID 0000.0001)  N.edge (j=+0,+1,+2) proc= 0.0 1.1 2.2, yIn=   89.784885   90.000000   90.215115
(PID.TID 0000.0001)  EXF_INTERP_READ: opening file: era5/ERA5_dlw_2008
(PID.TID 0000.0001)  EXF_INTERP: file="era5/ERA5_dlw_2008", rec=     1 , x-Per,P.Sym=    T    T
(PID.TID 0000.0001)  S.edge (j=-1,0,1) : proc= 2.2 1.1 0.0, yIn=  -90.215115  -90.000000  -89.784885
(PID.TID 0000.0001)  N.edge (j=+0,+1,+2) proc= 0.0 1.1 2.2, yIn=   89.784885   90.000000   90.215115
(PID.TID 0000.0001)  EXF_INTERP_READ: opening file: era5/ERA5_pres_2008
(PID.TID 0000.0001)  EXF_INTERP: file="era5/ERA5_pres_2008", rec=     1 , x-Per,P.Sym=    T    T
(PID.TID 0000.0001)  S.edge (j=-1,0,1) : proc= 2.2 1.1 0.0, yIn=  -90.215115  -90.000000  -89.784885
(PID.TID 0000.0001)  N.edge (j=+0,+1,+2) proc= 0.0 1.1 2.2, yIn=   89.784885   90.000000   90.215115
(PID.TID 0000.0001)  EXF_INTERP_READ: opening file: era5/ERA5_pres_2008
(PID.TID 0000.0001)  EXF_INTERP: file="era5/ERA5_pres_2008", rec=     2 , x-Per,P.Sym=    T    T
(PID.TID 0000.0001)  S.edge (j=-1,0,1) : proc= 2.2 1.1 0.0, yIn=  -90.215115  -90.000000  -89.784885
(PID.TID 0000.0001)  N.edge (j=+0,+1,+2) proc= 0.0 1.1 2.2, yIn=   89.784885   90.000000   90.215115
(PID.TID 0000.0001)  EXF_INTERP_READ: opening file: tide_IAU_EARTH_2008
(PID.TID 0000.0001)  EXF_INTERP: file="tide_IAU_EARTH_2008", rec=     1 , x-Per,P.Sym=    T    T
(PID.TID 0000.0001)  S.edge (j=-1,0,1) : proc= 0.2 0.2 0.1, yIn=  -92.000000  -91.000000  -90.000000
(PID.TID 0000.0001)  N.edge (j=+0,+1,+2) proc= 0.1 0.2 0.2, yIn=   90.000000   91.000000   92.000000
(PID.TID 0000.0001)  EXF_INTERP_READ: opening file: tide_IAU_EARTH_2008
(PID.TID 0000.0001)  EXF_INTERP: file="tide_IAU_EARTH_2008", rec=     2 , x-Per,P.Sym=    T    T
(PID.TID 0000.0001)  S.edge (j=-1,0,1) : proc= 0.2 0.2 0.1, yIn=  -92.000000  -91.000000  -90.000000
(PID.TID 0000.0001)  N.edge (j=+0,+1,+2) proc= 0.1 0.2 0.2, yIn=   90.000000   91.000000   92.000000
(PID.TID 0000.0001)  EXF_INTERP_READ: opening file: runoff1p2472-360x180x12.bin
(PID.TID 0000.0001)  EXF_INTERP: file="runoff1p2472-360x180x12.bin", rec=    12 , x-Per,P.Sym=    T    T
(PID.TID 0000.0001)  S.edge (j=-1,0,1) : proc= 2.2 1.1 0.0, yIn=  -90.500000  -90.000000  -89.500000
(PID.TID 0000.0001)  N.edge (j=+0,+1,+2) proc= 0.0 1.1 2.2, yIn=   89.500000   90.000000   90.500000
(PID.TID 0000.0001)  EXF_INTERP_READ: opening file: runoff1p2472-360x180x12.bin
(PID.TID 0000.0001)  EXF_INTERP: file="runoff1p2472-360x180x12.bin", rec=     1 , x-Per,P.Sym=    T    T
(PID.TID 0000.0001)  S.edge (j=-1,0,1) : proc= 2.2 1.1 0.0, yIn=  -90.500000  -90.000000  -89.500000
(PID.TID 0000.0001)  N.edge (j=+0,+1,+2) proc= 0.0 1.1 2.2, yIn=   89.500000   90.000000   90.500000
(PID.TID 0000.0001) // =======================================================
(PID.TID 0000.0001) // Begin MONITOR EXF statistics
(PID.TID 0000.0001) // =======================================================
(PID.TID 0000.0001) %MON exf_tsnumber                 =                     0
(PID.TID 0000.0001) %MON exf_time_sec                 =   0.0000000000000E+00
(PID.TID 0000.0001) %MON exf_ustress_max              =   8.1021563429596E-01
(PID.TID 0000.0001) %MON exf_ustress_min              =  -4.2241132739217E-01
(PID.TID 0000.0001) %MON exf_ustress_mean             =   6.3470758445923E-02
(PID.TID 0000.0001) %MON exf_ustress_sd               =   1.5597457834760E-01
(PID.TID 0000.0001) %MON exf_ustress_del2             =   4.0067014072945E-07
(PID.TID 0000.0001) %MON exf_vstress_max              =   4.5457894513432E-01
(PID.TID 0000.0001) %MON exf_vstress_min              =  -5.7435161332544E-01
(PID.TID 0000.0001) %MON exf_vstress_mean             =   1.0489255731139E-02
(PID.TID 0000.0001) %MON exf_vstress_sd               =   1.0314079016966E-01
(PID.TID 0000.0001) %MON exf_vstress_del2             =   3.5069332038971E-07
(PID.TID 0000.0001) %MON exf_hflux_max                =   7.3936048352197E+02
(PID.TID 0000.0001) %MON exf_hflux_min                =  -2.9380032071170E+02
(PID.TID 0000.0001) %MON exf_hflux_mean               =   2.0676741312272E+02
(PID.TID 0000.0001) %MON exf_hflux_sd                 =   1.2556620485981E+02
(PID.TID 0000.0001) %MON exf_hflux_del2               =   9.5213953651558E-02
(PID.TID 0000.0001) %MON exf_sflux_max                =   1.7927521086833E-07
(PID.TID 0000.0001) %MON exf_sflux_min                =  -7.6722935721296E-07
(PID.TID 0000.0001) %MON exf_sflux_mean               =   1.0488313837352E-09
(PID.TID 0000.0001) %MON exf_sflux_sd                 =   9.6904320468937E-08
(PID.TID 0000.0001) %MON exf_sflux_del2               =   3.8164860469618E-11
(PID.TID 0000.0001) %MON exf_uwind_max                =   1.9263869912902E+01
(PID.TID 0000.0001) %MON exf_uwind_min                =  -1.5159632394073E+01
(PID.TID 0000.0001) %MON exf_uwind_mean               =   2.5024690424829E+00
(PID.TID 0000.0001) %MON exf_uwind_sd                 =   6.6890298428390E+00
(PID.TID 0000.0001) %MON exf_uwind_del2               =   2.8513574512073E-03
(PID.TID 0000.0001) %MON exf_vwind_max                =   1.4876834219800E+01
(PID.TID 0000.0001) %MON exf_vwind_min                =  -1.2839355843636E+01
(PID.TID 0000.0001) %MON exf_vwind_mean               =   8.3786861876191E-01
(PID.TID 0000.0001) %MON exf_vwind_sd                 =   5.2439396821140E+00
(PID.TID 0000.0001) %MON exf_vwind_del2               =   2.1092221521025E-03
(PID.TID 0000.0001) %MON exf_wspeed_max               =   2.0608268959653E+01
(PID.TID 0000.0001) %MON exf_wspeed_min               =   1.0981558127454E-02
(PID.TID 0000.0001) %MON exf_wspeed_mean              =   7.7639713172572E+00
(PID.TID 0000.0001) %MON exf_wspeed_sd                =   4.3505342365896E+00
(PID.TID 0000.0001) %MON exf_wspeed_del2              =   3.5463131245207E-03
(PID.TID 0000.0001) %MON exf_atemp_max                =   2.9817782416526E+02
(PID.TID 0000.0001) %MON exf_atemp_min                =   2.7455175867563E+02
(PID.TID 0000.0001) %MON exf_atemp_mean               =   2.9070214679347E+02
(PID.TID 0000.0001) %MON exf_atemp_sd                 =   3.9454298781272E+00
(PID.TID 0000.0001) %MON exf_atemp_del2               =   6.8498006926938E-03
(PID.TID 0000.0001) %MON exf_aqh_max                  =   1.6822475533329E-02
(PID.TID 0000.0001) %MON exf_aqh_min                  =   2.7400629324803E-03
(PID.TID 0000.0001) %MON exf_aqh_mean                 =   9.4287725015436E-03
(PID.TID 0000.0001) %MON exf_aqh_sd                   =   2.8741639256530E-03
(PID.TID 0000.0001) %MON exf_aqh_del2                 =   3.7536812242073E-06
(PID.TID 0000.0001) %MON exf_lwflux_max               =   1.5976997007609E+02
(PID.TID 0000.0001) %MON exf_lwflux_min               =   1.4353708850643E+01
(PID.TID 0000.0001) %MON exf_lwflux_mean              =   6.6584954207837E+01
(PID.TID 0000.0001) %MON exf_lwflux_sd                =   2.0562444013923E+01
(PID.TID 0000.0001) %MON exf_lwflux_del2              =   2.6845936027420E-02
(PID.TID 0000.0001) %MON exf_evap_max                 =   1.9871244905221E-07
(PID.TID 0000.0001) %MON exf_evap_min                 =  -1.0194167551320E-07
(PID.TID 0000.0001) %MON exf_evap_mean                =   4.9802180083176E-08
(PID.TID 0000.0001) %MON exf_evap_sd                  =   3.9271077935649E-08
(PID.TID 0000.0001) %MON exf_evap_del2                =   2.5057690648735E-11
(PID.TID 0000.0001) %MON exf_precip_max               =   9.4246541647784E-07
(PID.TID 0000.0001) %MON exf_precip_min               =   0.0000000000000E+00
(PID.TID 0000.0001) %MON exf_precip_mean              =   4.7164869294221E-08
(PID.TID 0000.0001) %MON exf_precip_sd                =   9.2958497283911E-08
(PID.TID 0000.0001) %MON exf_precip_del2              =   4.1544877787042E-11
(PID.TID 0000.0001) %MON exf_swflux_max               =   0.0000000000000E+00
(PID.TID 0000.0001) %MON exf_swflux_min               =   0.0000000000000E+00
(PID.TID 0000.0001) %MON exf_swflux_mean              =   0.0000000000000E+00
(PID.TID 0000.0001) %MON exf_swflux_sd                =   0.0000000000000E+00
(PID.TID 0000.0001) %MON exf_swflux_del2              =   0.0000000000000E+00
(PID.TID 0000.0001) %MON exf_swdown_max               =   0.0000000000000E+00
(PID.TID 0000.0001) %MON exf_swdown_min               =   0.0000000000000E+00
(PID.TID 0000.0001) %MON exf_swdown_mean              =   0.0000000000000E+00
(PID.TID 0000.0001) %MON exf_swdown_sd                =   0.0000000000000E+00
(PID.TID 0000.0001) %MON exf_swdown_del2              =   0.0000000000000E+00
(PID.TID 0000.0001) %MON exf_lwdown_max               =   3.9820518771429E+02
(PID.TID 0000.0001) %MON exf_lwdown_min               =   2.2735753040754E+02
(PID.TID 0000.0001) %MON exf_lwdown_mean              =   3.4365975552612E+02
(PID.TID 0000.0001) %MON exf_lwdown_sd                =   2.5519938563091E+01
(PID.TID 0000.0001) %MON exf_lwdown_del2              =   1.3287608044832E-01
(PID.TID 0000.0001) %MON exf_apressure_max            =   1.0278540583118E+05
(PID.TID 0000.0001) %MON exf_apressure_min            =   9.9972821377996E+04
(PID.TID 0000.0001) %MON exf_apressure_mean           =   1.0215907878038E+05
(PID.TID 0000.0001) %MON exf_apressure_sd             =   5.0098246938817E+02
(PID.TID 0000.0001) %MON exf_apressure_del2           =   3.9517258494995E+01
(PID.TID 0000.0001) %MON exf_runoff_max               =   4.4374791284855E-08
(PID.TID 0000.0001) %MON exf_runoff_min               =   0.0000000000000E+00
(PID.TID 0000.0001) %MON exf_runoff_mean              =   1.5884794052194E-09
(PID.TID 0000.0001) %MON exf_runoff_sd                =   5.3901957917178E-09
(PID.TID 0000.0001) %MON exf_runoff_del2              =   2.2191214937507E-12
(PID.TID 0000.0001) // =======================================================
(PID.TID 0000.0001) // End MONITOR EXF statistics
(PID.TID 0000.0001) // =======================================================
(PID.TID 0000.0001) SOLVE_FOR_PRESSURE: putPmEinXvector =    F
 cg2d: Sum(rhs),rhsMax =   9.66276227565580E+01  1.27134122993719E-01
(PID.TID 0000.0001)      cg2d_init_res =   5.05716912803356E+00
(PID.TID 0000.0001)      cg2d_iters(min,last) =      -1     317
(PID.TID 0000.0001)      cg2d_last_res =   6.73248067851390E-12
(PID.TID 0000.0001) // =======================================================
(PID.TID 0000.0001) // Begin MONITOR dynamic field statistics
(PID.TID 0000.0001) // =======================================================
(PID.TID 0000.0001) %MON time_tsnumber                =                     1
(PID.TID 0000.0001) %MON time_secondsf                =   2.4000000000000E+02
(PID.TID 0000.0001) %MON dynstat_eta_max              =   1.3154534601794E+00
(PID.TID 0000.0001) %MON dynstat_eta_min              =  -6.9101734134147E-01
(PID.TID 0000.0001) %MON dynstat_eta_mean             =  -3.2860253356296E-03
(PID.TID 0000.0001) %MON dynstat_eta_sd               =   3.1279065608715E-02
(PID.TID 0000.0001) %MON dynstat_eta_del2             =   3.2730639409774E-06
(PID.TID 0000.0001) %MON dynstat_uvel_max             =   5.2965692003458E-01
(PID.TID 0000.0001) %MON dynstat_uvel_min             =  -2.3125857859423E-01
(PID.TID 0000.0001) %MON dynstat_uvel_mean            =   2.8968008231218E-06
(PID.TID 0000.0001) %MON dynstat_uvel_sd              =   1.6820959873131E-02
(PID.TID 0000.0001) %MON dynstat_uvel_del2            =   8.9319226218501E-08
(PID.TID 0000.0001) %MON dynstat_vvel_max             =   6.5549963126223E-01
(PID.TID 0000.0001) %MON dynstat_vvel_min             =  -6.1186512132881E-01
(PID.TID 0000.0001) %MON dynstat_vvel_mean            =  -7.9863540802159E-04
(PID.TID 0000.0001) %MON dynstat_vvel_sd              =   1.5955855566632E-02
(PID.TID 0000.0001) %MON dynstat_vvel_del2            =   1.0363813624823E-07
(PID.TID 0000.0001) %MON dynstat_wvel_max             =   6.3051266526116E-03
(PID.TID 0000.0001) %MON dynstat_wvel_min             =  -7.4350958086583E-03
(PID.TID 0000.0001) %MON dynstat_wvel_mean            =  -9.7628849735343E-06
(PID.TID 0000.0001) %MON dynstat_wvel_sd              =   9.7261823746460E-05
(PID.TID 0000.0001) %MON dynstat_wvel_del2            =   1.1882577773655E-08
(PID.TID 0000.0001) %MON dynstat_theta_max            =   2.5556837010390E+01
(PID.TID 0000.0001) %MON dynstat_theta_min            =   1.4441539087907E+00
(PID.TID 0000.0001) %MON dynstat_theta_mean           =   5.5933701829505E+00
(PID.TID 0000.0001) %MON dynstat_theta_sd             =   4.7973024208054E+00
(PID.TID 0000.0001) %MON dynstat_theta_del2           =   1.4658860155154E-06
(PID.TID 0000.0001) %MON dynstat_salt_max             =   3.8105695936341E+01
(PID.TID 0000.0001) %MON dynstat_salt_min             =   3.0528132213283E+01
(PID.TID 0000.0001) %MON dynstat_salt_mean            =   3.5189814057735E+01
(PID.TID 0000.0001) %MON dynstat_salt_sd              =   4.6939928221893E-01
(PID.TID 0000.0001) %MON dynstat_salt_del2            =   2.6993857994065E-07
(PID.TID 0000.0001) %MON forcing_qnet_max             =   7.5115845500409E+02
(PID.TID 0000.0001) %MON forcing_qnet_min             =  -2.9961192685568E+02
(PID.TID 0000.0001) %MON forcing_qnet_mean            =   2.0735549126797E+02
(PID.TID 0000.0001) %MON forcing_qnet_sd              =   1.2821141500249E+02
(PID.TID 0000.0001) %MON forcing_qnet_del2            =   9.1445101841634E-04
(PID.TID 0000.0001) %MON forcing_qsw_max              =   0.0000000000000E+00
(PID.TID 0000.0001) %MON forcing_qsw_min              =   0.0000000000000E+00
(PID.TID 0000.0001) %MON forcing_qsw_mean             =   0.0000000000000E+00
(PID.TID 0000.0001) %MON forcing_qsw_sd               =   0.0000000000000E+00
(PID.TID 0000.0001) %MON forcing_qsw_del2             =   0.0000000000000E+00
(PID.TID 0000.0001) %MON forcing_empmr_max            =   1.7927521086833E-04
(PID.TID 0000.0001) %MON forcing_empmr_min            =  -7.6722935721296E-04
(PID.TID 0000.0001) %MON forcing_empmr_mean           =   1.0488313837352E-06
(PID.TID 0000.0001) %MON forcing_empmr_sd             =   9.6904320468937E-05
(PID.TID 0000.0001) %MON forcing_empmr_del2           =   2.4453620939724E-09
(PID.TID 0000.0001) %MON forcing_fu_max               =   8.0989222810970E-01
(PID.TID 0000.0001) %MON forcing_fu_min               =  -4.2225795164563E-01
(PID.TID 0000.0001) %MON forcing_fu_mean              =   6.3527303195073E-02
(PID.TID 0000.0001) %MON forcing_fu_sd                =   1.5603121362732E-01
(PID.TID 0000.0001) %MON forcing_fu_del2              =   3.8527362844011E-07
(PID.TID 0000.0001) %MON forcing_fv_max               =   4.5438798783925E-01
(PID.TID 0000.0001) %MON forcing_fv_min               =  -5.7551322878924E-01
(PID.TID 0000.0001) %MON forcing_fv_mean              =   1.0469706783797E-02
(PID.TID 0000.0001) %MON forcing_fv_sd                =   1.0326588695285E-01
(PID.TID 0000.0001) %MON forcing_fv_del2              =   3.2550302569376E-07
(PID.TID 0000.0001) %MON trAdv_CFL_u_max              =   3.3506931442646E-02
(PID.TID 0000.0001) %MON trAdv_CFL_v_max              =   4.6928284193512E-02
(PID.TID 0000.0001) %MON trAdv_CFL_w_max              =   3.5688459881560E-01
(PID.TID 0000.0001) %MON advcfl_uvel_max              =   3.3506931021426E-02
(PID.TID 0000.0001) %MON advcfl_vvel_max              =   4.6930092507935E-02
(PID.TID 0000.0001) %MON advcfl_wvel_max              =   5.2618138407177E-01
(PID.TID 0000.0001) %MON advcfl_W_hf_max              =   3.5688459881560E-01
(PID.TID 0000.0001) %MON pe_b_mean                    =  -7.9698645573905E-05
(PID.TID 0000.0001) %MON ke_max                       =   3.0047158151689E-01
(PID.TID 0000.0001) %MON ke_mean                      =   2.6693355650028E-04
(PID.TID 0000.0001) %MON ke_vol                       =   4.5818637279721E+16
(PID.TID 0000.0001) %MON vort_r_min                   =  -2.3428916911545E-04
(PID.TID 0000.0001) %MON vort_r_max                   =   2.8446395364837E-04
(PID.TID 0000.0001) %MON vort_a_mean                  =   8.2147589535940E-05
(PID.TID 0000.0001) %MON vort_a_sd                    =   9.7028631926320E-06
(PID.TID 0000.0001) %MON vort_p_mean                  =   8.4848809741778E-05
(PID.TID 0000.0001) %MON vort_p_sd                    =   3.5003797808077E-05
(PID.TID 0000.0001) %MON surfExpan_theta_mean         =  -3.3742404814967E-04
(PID.TID 0000.0001) %MON surfExpan_salt_mean          =  -5.1951895176144E-04
(PID.TID 0000.0001) // =======================================================
(PID.TID 0000.0001) // End MONITOR dynamic field statistics
(PID.TID 0000.0001) // =======================================================
(PID.TID 0000.0001) // =======================================================
(PID.TID 0000.0001) // Begin OBCS MONITOR field statistics
(PID.TID 0000.0001) // =======================================================
(PID.TID 0000.0001) %MON obc_N_vVel_max               =   7.5135590585408E-02
(PID.TID 0000.0001) %MON obc_N_vVel_min               =  -6.1186512132881E-01
(PID.TID 0000.0001) %MON obc_N_vVel_mean              =  -5.8118498326207E-03
(PID.TID 0000.0001) %MON obc_N_vVel_sd                =   1.6316751427234E-02
(PID.TID 0000.0001) %MON obc_N_vVel_Int               =  -8.3197121238327E+07
(PID.TID 0000.0001) %MON obc_S_vVel_max               =   6.3812291474383E-01
(PID.TID 0000.0001) %MON obc_S_vVel_min               =  -1.0796423423378E-01
(PID.TID 0000.0001) %MON obc_S_vVel_mean              =  -7.8157533944075E-03
(PID.TID 0000.0001) %MON obc_S_vVel_sd                =   2.0147939120874E-02
(PID.TID 0000.0001) %MON obc_S_vVel_Int               =  -2.3793419645425E+08
(PID.TID 0000.0001) %MON obc_N_theta_max              =   1.6146016932197E+01
(PID.TID 0000.0001) %MON obc_N_theta_min              =   1.6881067509470E+00
(PID.TID 0000.0001) %MON obc_N_theta_mean             =   5.2226048130993E+00
(PID.TID 0000.0001) %MON obc_N_theta_sd               =   3.6304193068449E+00
(PID.TID 0000.0001) %MON obc_S_theta_max              =   2.5392549112500E+01
(PID.TID 0000.0001) %MON obc_S_theta_min              =   1.5161810401746E+00
(PID.TID 0000.0001) %MON obc_S_theta_mean             =   5.4082519924622E+00
(PID.TID 0000.0001) %MON obc_S_theta_sd               =   5.1183460407734E+00
(PID.TID 0000.0001) %MON obc_N_salt_max               =   3.6395877802973E+01
(PID.TID 0000.0001) %MON obc_N_salt_min               =   3.0617486558775E+01
(PID.TID 0000.0001) %MON obc_N_salt_mean              =   3.5063771804599E+01
(PID.TID 0000.0001) %MON obc_N_salt_sd                =   3.9120198393987E-01
(PID.TID 0000.0001) %MON obc_S_salt_max               =   3.7332514546469E+01
(PID.TID 0000.0001) %MON obc_S_salt_min               =   3.4852181427016E+01
(PID.TID 0000.0001) %MON obc_S_salt_mean              =   3.5186250740315E+01
(PID.TID 0000.0001) %MON obc_S_salt_sd                =   5.1365332485694E-01
(PID.TID 0000.0001) // =======================================================
(PID.TID 0000.0001) // End OBCS MONITOR field statistics
(PID.TID 0000.0001) // =======================================================
(PID.TID 0000.0001) // =======================================================
(PID.TID 0000.0001) // Begin MONITOR EXF statistics
(PID.TID 0000.0001) // =======================================================
(PID.TID 0000.0001) %MON exf_tsnumber                 =                     1
(PID.TID 0000.0001) %MON exf_time_sec                 =   2.4000000000000E+02
(PID.TID 0000.0001) %MON exf_ustress_max              =   8.0313108752734E-01
(PID.TID 0000.0001) %MON exf_ustress_min              =  -4.1865957657070E-01
(PID.TID 0000.0001) %MON exf_ustress_mean             =   6.3318499721335E-02
(PID.TID 0000.0001) %MON exf_ustress_sd               =   1.5521991140889E-01
(PID.TID 0000.0001) %MON exf_ustress_del2             =   3.7253598214374E-07
(PID.TID 0000.0001) %MON exf_vstress_max              =   4.4205992105868E-01
(PID.TID 0000.0001) %MON exf_vstress_min              =  -5.7071345629569E-01
(PID.TID 0000.0001) %MON exf_vstress_mean             =   1.0430795331989E-02
(PID.TID 0000.0001) %MON exf_vstress_sd               =   1.0243976877928E-01
(PID.TID 0000.0001) %MON exf_vstress_del2             =   3.1934229878970E-07
(PID.TID 0000.0001) %MON exf_hflux_max                =   7.3084018533617E+02
(PID.TID 0000.0001) %MON exf_hflux_min                =  -2.9069103847375E+02
(PID.TID 0000.0001) %MON exf_hflux_mean               =   2.0580912137809E+02
(PID.TID 0000.0001) %MON exf_hflux_sd                 =   1.2466344014884E+02
(PID.TID 0000.0001) %MON exf_hflux_del2               =   9.4699568775614E-02
(PID.TID 0000.0001) %MON exf_sflux_max                =   1.7776391459370E-07
(PID.TID 0000.0001) %MON exf_sflux_min                =  -8.9240447324666E-07
(PID.TID 0000.0001) %MON exf_sflux_mean               =   1.9067448094868E-09
(PID.TID 0000.0001) %MON exf_sflux_sd                 =   9.7566134863587E-08
(PID.TID 0000.0001) %MON exf_sflux_del2               =   3.8563782431830E-11
(PID.TID 0000.0001) %MON exf_uwind_max                =   1.9198144880586E+01
(PID.TID 0000.0001) %MON exf_uwind_min                =  -1.5113532113870E+01
(PID.TID 0000.0001) %MON exf_uwind_mean               =   2.5023150591297E+00
(PID.TID 0000.0001) %MON exf_uwind_sd                 =   6.6807547786707E+00
(PID.TID 0000.0001) %MON exf_uwind_del2               =   2.8481513583649E-03
(PID.TID 0000.0001) %MON exf_vwind_max                =   1.4736391701760E+01
(PID.TID 0000.0001) %MON exf_vwind_min                =  -1.2816449821367E+01
(PID.TID 0000.0001) %MON exf_vwind_mean               =   8.3935530547759E-01
(PID.TID 0000.0001) %MON exf_vwind_sd                 =   5.2294781870342E+00
(PID.TID 0000.0001) %MON exf_vwind_del2               =   2.1038578038424E-03
(PID.TID 0000.0001) %MON exf_wspeed_max               =   2.0534084275888E+01
(PID.TID 0000.0001) %MON exf_wspeed_min               =   1.0095306666986E-02
(PID.TID 0000.0001) %MON exf_wspeed_mean              =   7.7518662616179E+00
(PID.TID 0000.0001) %MON exf_wspeed_sd                =   4.3421876937056E+00
(PID.TID 0000.0001) %MON exf_wspeed_del2              =   3.5405702356284E-03
(PID.TID 0000.0001) %MON exf_atemp_max                =   2.9817562687684E+02
(PID.TID 0000.0001) %MON exf_atemp_min                =   2.7452615746699E+02
(PID.TID 0000.0001) %MON exf_atemp_mean               =   2.9069902558728E+02
(PID.TID 0000.0001) %MON exf_atemp_sd                 =   3.9447514879437E+00
(PID.TID 0000.0001) %MON exf_atemp_del2               =   6.8485074445547E-03
(PID.TID 0000.0001) %MON exf_aqh_max                  =   1.6815489232455E-02
(PID.TID 0000.0001) %MON exf_aqh_min                  =   2.7377682347164E-03
(PID.TID 0000.0001) %MON exf_aqh_mean                 =   9.4275843487295E-03
(PID.TID 0000.0001) %MON exf_aqh_sd                   =   2.8734848400241E-03
(PID.TID 0000.0001) %MON exf_aqh_del2                 =   3.7530606925921E-06
(PID.TID 0000.0001) %MON exf_lwflux_max               =   1.5932026242635E+02
(PID.TID 0000.0001) %MON exf_lwflux_min               =   1.4332875532828E+01
(PID.TID 0000.0001) %MON exf_lwflux_mean              =   6.5805066812234E+01
(PID.TID 0000.0001) %MON exf_lwflux_sd                =   2.0573750784977E+01
(PID.TID 0000.0001) %MON exf_lwflux_del2              =   2.6552544733447E-02
(PID.TID 0000.0001) %MON exf_evap_max                 =   1.9751808062211E-07
(PID.TID 0000.0001) %MON exf_evap_min                 =  -1.0075785128285E-07
(PID.TID 0000.0001) %MON exf_evap_mean                =   4.9736227680079E-08
(PID.TID 0000.0001) %MON exf_evap_sd                  =   3.9130534026461E-08
(PID.TID 0000.0001) %MON exf_evap_del2                =   2.5003445497238E-11
(PID.TID 0000.0001) %MON exf_precip_max               =   1.0681274720082E-06
(PID.TID 0000.0001) %MON exf_precip_min               =   0.0000000000000E+00
(PID.TID 0000.0001) %MON exf_precip_mean              =   4.6241003465373E-08
(PID.TID 0000.0001) %MON exf_precip_sd                =   9.5180213938007E-08
(PID.TID 0000.0001) %MON exf_precip_del2              =   4.2339359514858E-11
(PID.TID 0000.0001) %MON exf_swflux_max               =   0.0000000000000E+00
(PID.TID 0000.0001) %MON exf_swflux_min               =   0.0000000000000E+00
(PID.TID 0000.0001) %MON exf_swflux_mean              =   0.0000000000000E+00
(PID.TID 0000.0001) %MON exf_swflux_sd                =   0.0000000000000E+00
(PID.TID 0000.0001) %MON exf_swflux_del2              =   0.0000000000000E+00
(PID.TID 0000.0001) %MON exf_swdown_max               =   0.0000000000000E+00
(PID.TID 0000.0001) %MON exf_swdown_min               =   0.0000000000000E+00
(PID.TID 0000.0001) %MON exf_swdown_mean              =   0.0000000000000E+00
(PID.TID 0000.0001) %MON exf_swdown_sd                =   0.0000000000000E+00
(PID.TID 0000.0001) %MON exf_swdown_del2              =   0.0000000000000E+00
(PID.TID 0000.0001) %MON exf_lwdown_max               =   3.9865640868250E+02
(PID.TID 0000.0001) %MON exf_lwdown_min               =   2.2781411885010E+02
(PID.TID 0000.0001) %MON exf_lwdown_mean              =   3.4445380950638E+02
(PID.TID 0000.0001) %MON exf_lwdown_sd                =   2.5672720097867E+01
(PID.TID 0000.0001) %MON exf_lwdown_del2              =   1.3319097134729E-01
(PID.TID 0000.0001) %MON exf_apressure_max            =   1.0278691686358E+05
(PID.TID 0000.0001) %MON exf_apressure_min            =   9.9978539078627E+04
(PID.TID 0000.0001) %MON exf_apressure_mean           =   1.0215985608694E+05
(PID.TID 0000.0001) %MON exf_apressure_sd             =   5.0058207786859E+02
(PID.TID 0000.0001) %MON exf_apressure_del2           =   3.9517565334831E+01
(PID.TID 0000.0001) %MON exf_runoff_max               =   4.4374791284855E-08
(PID.TID 0000.0001) %MON exf_runoff_min               =   0.0000000000000E+00
(PID.TID 0000.0001) %MON exf_runoff_mean              =   1.5884794052194E-09
(PID.TID 0000.0001) %MON exf_runoff_sd                =   5.3901957917178E-09
(PID.TID 0000.0001) %MON exf_runoff_del2              =   2.2191214937507E-12
(PID.TID 0000.0001) // =======================================================
(PID.TID 0000.0001) // End MONITOR EXF statistics
(PID.TID 0000.0001) // =======================================================
 cg2d: Sum(rhs),rhsMax =   1.86236377953849E+02  5.69625134628886E-02
(PID.TID 0000.0001)      cg2d_init_res =   4.86330364342266E+00
(PID.TID 0000.0001)      cg2d_iters(min,last) =      -1     316
(PID.TID 0000.0001)      cg2d_last_res =   6.51036609245812E-12
(PID.TID 0000.0001) // =======================================================
(PID.TID 0000.0001) // Begin MONITOR dynamic field statistics
(PID.TID 0000.0001) // =======================================================
(PID.TID 0000.0001) %MON time_tsnumber                =                     2
(PID.TID 0000.0001) %MON time_secondsf                =   4.8000000000000E+02
(PID.TID 0000.0001) %MON dynstat_eta_max              =   1.5504784777707E+00
(PID.TID 0000.0001) %MON dynstat_eta_min              =  -6.1924778625191E-01
(PID.TID 0000.0001) %MON dynstat_eta_mean             =  -6.3333593326004E-03
(PID.TID 0000.0001) %MON dynstat_eta_sd               =   5.1165670542583E-02
(PID.TID 0000.0001) %MON dynstat_eta_del2             =   2.1252124182266E-06
(PID.TID 0000.0001) %MON dynstat_uvel_max             =   5.5000945800059E-01
(PID.TID 0000.0001) %MON dynstat_uvel_min             =  -2.6599832721259E-01
(PID.TID 0000.0001) %MON dynstat_uvel_mean            =  -1.3839879204046E-04
(PID.TID 0000.0001) %MON dynstat_uvel_sd              =   1.6940832189802E-02
(PID.TID 0000.0001) %MON dynstat_uvel_del2            =   1.1289931407455E-07
(PID.TID 0000.0001) %MON dynstat_vvel_max             =   6.5392577651774E-01
(PID.TID 0000.0001) %MON dynstat_vvel_min             =  -6.0059748942610E-01
(PID.TID 0000.0001) %MON dynstat_vvel_mean            =  -1.5073553354048E-03
(PID.TID 0000.0001) %MON dynstat_vvel_sd              =   1.5970751660625E-02
(PID.TID 0000.0001) %MON dynstat_vvel_del2            =   1.1234785858177E-07
(PID.TID 0000.0001) %MON dynstat_wvel_max             =   6.0947840452186E-03
(PID.TID 0000.0001) %MON dynstat_wvel_min             =  -6.2597901344660E-03
(PID.TID 0000.0001) %MON dynstat_wvel_mean            =  -9.1692332663935E-06
(PID.TID 0000.0001) %MON dynstat_wvel_sd              =   9.1171008015005E-05
(PID.TID 0000.0001) %MON dynstat_wvel_del2            =   1.1469797806259E-08
(PID.TID 0000.0001) %MON dynstat_theta_max            =   2.5556834309556E+01
(PID.TID 0000.0001) %MON dynstat_theta_min            =   1.4441539126666E+00
(PID.TID 0000.0001) %MON dynstat_theta_mean           =   5.5933809759178E+00
(PID.TID 0000.0001) %MON dynstat_theta_sd             =   4.7973152784725E+00
(PID.TID 0000.0001) %MON dynstat_theta_del2           =   1.4796730818366E-06
(PID.TID 0000.0001) %MON dynstat_salt_max             =   3.8096626545709E+01
(PID.TID 0000.0001) %MON dynstat_salt_min             =   3.0528833614627E+01
(PID.TID 0000.0001) %MON dynstat_salt_mean            =   3.5189815702397E+01
(PID.TID 0000.0001) %MON dynstat_salt_sd              =   4.6940281640417E-01
(PID.TID 0000.0001) %MON dynstat_salt_del2            =   2.7091245437955E-07
(PID.TID 0000.0001) %MON forcing_qnet_max             =   7.4191686885638E+02
(PID.TID 0000.0001) %MON forcing_qnet_min             =  -2.9613735890784E+02
(PID.TID 0000.0001) %MON forcing_qnet_mean            =   2.0647412188076E+02
(PID.TID 0000.0001) %MON forcing_qnet_sd              =   1.2707234426244E+02
(PID.TID 0000.0001) %MON forcing_qnet_del2            =   9.0952182217340E-04
(PID.TID 0000.0001) %MON forcing_qsw_max              =   0.0000000000000E+00
(PID.TID 0000.0001) %MON forcing_qsw_min              =   0.0000000000000E+00
(PID.TID 0000.0001) %MON forcing_qsw_mean             =   0.0000000000000E+00
(PID.TID 0000.0001) %MON forcing_qsw_sd               =   0.0000000000000E+00
(PID.TID 0000.0001) %MON forcing_qsw_del2             =   0.0000000000000E+00
(PID.TID 0000.0001) %MON forcing_empmr_max            =   1.7776391459370E-04
(PID.TID 0000.0001) %MON forcing_empmr_min            =  -8.9240447324666E-04
(PID.TID 0000.0001) %MON forcing_empmr_mean           =   1.9067448094868E-06
(PID.TID 0000.0001) %MON forcing_empmr_sd             =   9.7566134863587E-05
(PID.TID 0000.0001) %MON forcing_empmr_del2           =   2.4676201677653E-09
(PID.TID 0000.0001) %MON forcing_fu_max               =   8.0295824923992E-01
(PID.TID 0000.0001) %MON forcing_fu_min               =  -4.1856041718608E-01
(PID.TID 0000.0001) %MON forcing_fu_mean              =   6.3375310335829E-02
(PID.TID 0000.0001) %MON forcing_fu_sd                =   1.5527683863832E-01
(PID.TID 0000.0001) %MON forcing_fu_del2              =   3.5658968680382E-07
(PID.TID 0000.0001) %MON forcing_fv_max               =   4.4174255939900E-01
(PID.TID 0000.0001) %MON forcing_fv_min               =  -5.7262726912896E-01
(PID.TID 0000.0001) %MON forcing_fv_mean              =   1.0411451468219E-02
(PID.TID 0000.0001) %MON forcing_fv_sd                =   1.0256595942574E-01
(PID.TID 0000.0001) %MON forcing_fv_del2              =   2.9504366565034E-07
(PID.TID 0000.0001) %MON trAdv_CFL_u_max              =   3.6827960055587E-02
(PID.TID 0000.0001) %MON trAdv_CFL_v_max              =   4.6064089432795E-02
(PID.TID 0000.0001) %MON trAdv_CFL_w_max              =   2.2590701205228E-01
(PID.TID 0000.0001) %MON advcfl_uvel_max              =   3.6827959684903E-02
(PID.TID 0000.0001) %MON advcfl_vvel_max              =   4.6065864446706E-02
(PID.TID 0000.0001) %MON advcfl_wvel_max              =   2.2590701205228E-01
(PID.TID 0000.0001) %MON advcfl_W_hf_max              =   2.2590701205228E-01
(PID.TID 0000.0001) %MON pe_b_mean                    =  -1.5273300659829E-04
(PID.TID 0000.0001) %MON ke_max                       =   2.9956081581146E-01
(PID.TID 0000.0001) %MON ke_mean                      =   2.7000228552869E-04
(PID.TID 0000.0001) %MON ke_vol                       =   4.5818637279721E+16
(PID.TID 0000.0001) %MON vort_r_min                   =  -2.4985636819531E-04
(PID.TID 0000.0001) %MON vort_r_max                   =   2.7835617031046E-04
(PID.TID 0000.0001) %MON vort_a_mean                  =   8.2147589656475E-05
(PID.TID 0000.0001) %MON vort_a_sd                    =   9.7032722795019E-06
(PID.TID 0000.0001) %MON vort_p_mean                  =   8.4848809866277E-05
(PID.TID 0000.0001) %MON vort_p_sd                    =   3.5002589763753E-05
(PID.TID 0000.0001) %MON surfExpan_theta_mean         =  -2.9033044386406E-04
(PID.TID 0000.0001) %MON surfExpan_salt_mean          =  -4.7717622406381E-04
(PID.TID 0000.0001) // =======================================================
(PID.TID 0000.0001) // End MONITOR dynamic field statistics
(PID.TID 0000.0001) // =======================================================
(PID.TID 0000.0001) // =======================================================
(PID.TID 0000.0001) // Begin OBCS MONITOR field statistics
(PID.TID 0000.0001) // =======================================================
(PID.TID 0000.0001) %MON obc_N_vVel_max               =   7.5017533789168E-02
(PID.TID 0000.0001) %MON obc_N_vVel_min               =  -6.0059748942610E-01
(PID.TID 0000.0001) %MON obc_N_vVel_mean              =  -5.9617752458977E-03
(PID.TID 0000.0001) %MON obc_N_vVel_sd                =   1.6408650826801E-02
(PID.TID 0000.0001) %MON obc_N_vVel_Int               =  -8.5343316192489E+07
(PID.TID 0000.0001) %MON obc_S_vVel_max               =   6.3906313865118E-01
(PID.TID 0000.0001) %MON obc_S_vVel_min               =  -1.0783529642456E-01
(PID.TID 0000.0001) %MON obc_S_vVel_mean              =  -7.5170418613177E-03
(PID.TID 0000.0001) %MON obc_S_vVel_sd                =   2.0136272926634E-02
(PID.TID 0000.0001) %MON obc_S_vVel_Int               =  -2.2884055122125E+08
(PID.TID 0000.0001) %MON obc_N_theta_max              =   1.6146022523605E+01
(PID.TID 0000.0001) %MON obc_N_theta_min              =   1.6880380767463E+00
(PID.TID 0000.0001) %MON obc_N_theta_mean             =   5.2226028868106E+00
(PID.TID 0000.0001) %MON obc_N_theta_sd               =   3.6304155216602E+00
(PID.TID 0000.0001) %MON obc_S_theta_max              =   2.5392536835319E+01
(PID.TID 0000.0001) %MON obc_S_theta_min              =   1.5161810184597E+00
(PID.TID 0000.0001) %MON obc_S_theta_mean             =   5.4082510713143E+00
(PID.TID 0000.0001) %MON obc_S_theta_sd               =   5.1183428453241E+00
(PID.TID 0000.0001) %MON obc_N_salt_max               =   3.6395879146429E+01
(PID.TID 0000.0001) %MON obc_N_salt_min               =   3.0617503122377E+01
(PID.TID 0000.0001) %MON obc_N_salt_mean              =   3.5063771874952E+01
(PID.TID 0000.0001) %MON obc_N_salt_sd                =   3.9120161184216E-01
(PID.TID 0000.0001) %MON obc_S_salt_max               =   3.7332505167344E+01
(PID.TID 0000.0001) %MON obc_S_salt_min               =   3.4852181425275E+01
(PID.TID 0000.0001) %MON obc_S_salt_mean              =   3.5186250780811E+01
(PID.TID 0000.0001) %MON obc_S_salt_sd                =   5.1365341094845E-01
(PID.TID 0000.0001) // =======================================================
(PID.TID 0000.0001) // End OBCS MONITOR field statistics
(PID.TID 0000.0001) // =======================================================
(PID.TID 0000.0001) // =======================================================
(PID.TID 0000.0001) // Begin MONITOR EXF statistics
(PID.TID 0000.0001) // =======================================================
(PID.TID 0000.0001) %MON exf_tsnumber                 =                     2
(PID.TID 0000.0001) %MON exf_time_sec                 =   4.8000000000000E+02
(PID.TID 0000.0001) %MON exf_ustress_max              =   7.9710153859232E-01
(PID.TID 0000.0001) %MON exf_ustress_min              =  -4.1547894186554E-01
(PID.TID 0000.0001) %MON exf_ustress_mean             =   6.3218306448610E-02
(PID.TID 0000.0001) %MON exf_ustress_sd               =   1.5462692438463E-01
(PID.TID 0000.0001) %MON exf_ustress_del2             =   3.5050340489822E-07
(PID.TID 0000.0001) %MON exf_vstress_max              =   4.3219300799747E-01
(PID.TID 0000.0001) %MON exf_vstress_min              =  -5.6789596621398E-01
(PID.TID 0000.0001) %MON exf_vstress_mean             =   1.0392649625340E-02
(PID.TID 0000.0001) %MON exf_vstress_sd               =   1.0188719921025E-01
(PID.TID 0000.0001) %MON exf_vstress_del2             =   2.9632505712494E-07
(PID.TID 0000.0001) %MON exf_hflux_max                =   7.2326632408810E+02
(PID.TID 0000.0001) %MON exf_hflux_min                =  -2.9142925544008E+02
(PID.TID 0000.0001) %MON exf_hflux_mean               =   2.0490427243535E+02
(PID.TID 0000.0001) %MON exf_hflux_sd                 =   1.2387642477750E+02
(PID.TID 0000.0001) %MON exf_hflux_del2               =   9.4228064501983E-02
(PID.TID 0000.0001) %MON exf_sflux_max                =   1.7634494492807E-07
(PID.TID 0000.0001) %MON exf_sflux_min                =  -1.0175141789367E-06
(PID.TID 0000.0001) %MON exf_sflux_mean               =   2.7811533129144E-09
(PID.TID 0000.0001) %MON exf_sflux_sd                 =   9.9834258913075E-08
(PID.TID 0000.0001) %MON exf_sflux_del2               =   3.9610152199596E-11
(PID.TID 0000.0001) %MON exf_uwind_max                =   1.9144801142756E+01
(PID.TID 0000.0001) %MON exf_uwind_min                =  -1.5074499943363E+01
(PID.TID 0000.0001) %MON exf_uwind_mean               =   2.5025832014475E+00
(PID.TID 0000.0001) %MON exf_uwind_sd                 =   6.6741139570950E+00
(PID.TID 0000.0001) %MON exf_uwind_del2               =   2.8456289464524E-03
(PID.TID 0000.0001) %MON exf_vwind_max                =   1.4621061490564E+01
(PID.TID 0000.0001) %MON exf_vwind_min                =  -1.2800430584768E+01
(PID.TID 0000.0001) %MON exf_vwind_mean               =   8.4092119037216E-01
(PID.TID 0000.0001) %MON exf_vwind_sd                 =   5.2170566312149E+00
(PID.TID 0000.0001) %MON exf_vwind_del2               =   2.0993166304106E-03
(PID.TID 0000.0001) %MON exf_wspeed_max               =   2.0471684124738E+01
(PID.TID 0000.0001) %MON exf_wspeed_min               =   8.9476128496660E-03
(PID.TID 0000.0001) %MON exf_wspeed_mean              =   7.7416121859363E+00
(PID.TID 0000.0001) %MON exf_wspeed_sd                =   4.3357800793789E+00
(PID.TID 0000.0001) %MON exf_wspeed_del2              =   3.5358647247028E-03
(PID.TID 0000.0001) %MON exf_atemp_max                =   2.9817342958842E+02
(PID.TID 0000.0001) %MON exf_atemp_min                =   2.7450055625835E+02
(PID.TID 0000.0001) %MON exf_atemp_mean               =   2.9069590438109E+02
(PID.TID 0000.0001) %MON exf_atemp_sd                 =   3.9442154521307E+00
(PID.TID 0000.0001) %MON exf_atemp_del2               =   6.8472278878904E-03
(PID.TID 0000.0001) %MON exf_aqh_max                  =   1.6808502931582E-02
(PID.TID 0000.0001) %MON exf_aqh_min                  =   2.7354735369524E-03
(PID.TID 0000.0001) %MON exf_aqh_mean                 =   9.4263961959154E-03
(PID.TID 0000.0001) %MON exf_aqh_sd                   =   2.8729783809480E-03
(PID.TID 0000.0001) %MON exf_aqh_del2                 =   3.7524618969282E-06
(PID.TID 0000.0001) %MON exf_lwflux_max               =   1.5890091826453E+02
(PID.TID 0000.0001) %MON exf_lwflux_min               =   1.4313904045905E+01
(PID.TID 0000.0001) %MON exf_lwflux_mean              =   6.5027327670890E+01
(PID.TID 0000.0001) %MON exf_lwflux_sd                =   2.0881186613169E+01
(PID.TID 0000.0001) %MON exf_lwflux_del2              =   2.6296151701430E-02
(PID.TID 0000.0001) %MON exf_evap_max                 =   1.9644468599720E-07
(PID.TID 0000.0001) %MON exf_evap_min                 =  -1.0019221878716E-07
(PID.TID 0000.0001) %MON exf_evap_mean                =   4.9686770354658E-08
(PID.TID 0000.0001) %MON exf_evap_sd                  =   3.9014541222940E-08
(PID.TID 0000.0001) %MON exf_evap_del2                =   2.4960649273059E-11
(PID.TID 0000.0001) %MON exf_precip_max               =   1.1937895275386E-06
(PID.TID 0000.0001) %MON exf_precip_min               =   0.0000000000000E+00
(PID.TID 0000.0001) %MON exf_precip_mean              =   4.5317137636524E-08
(PID.TID 0000.0001) %MON exf_precip_sd                =   9.8966652401900E-08
(PID.TID 0000.0001) %MON exf_precip_del2              =   4.3705556140304E-11
(PID.TID 0000.0001) %MON exf_swflux_max               =   0.0000000000000E+00
(PID.TID 0000.0001) %MON exf_swflux_min               =   0.0000000000000E+00
(PID.TID 0000.0001) %MON exf_swflux_mean              =   0.0000000000000E+00
(PID.TID 0000.0001) %MON exf_swflux_sd                =   0.0000000000000E+00
(PID.TID 0000.0001) %MON exf_swflux_del2              =   0.0000000000000E+00
(PID.TID 0000.0001) %MON exf_swdown_max               =   0.0000000000000E+00
(PID.TID 0000.0001) %MON exf_swdown_min               =   0.0000000000000E+00
(PID.TID 0000.0001) %MON exf_swdown_mean              =   0.0000000000000E+00
(PID.TID 0000.0001) %MON exf_swdown_sd                =   0.0000000000000E+00
(PID.TID 0000.0001) %MON exf_swdown_del2              =   0.0000000000000E+00
(PID.TID 0000.0001) %MON exf_lwdown_max               =   3.9916214768056E+02
(PID.TID 0000.0001) %MON exf_lwdown_min               =   2.2827070729266E+02
(PID.TID 0000.0001) %MON exf_lwdown_mean              =   3.4524786348664E+02
(PID.TID 0000.0001) %MON exf_lwdown_sd                =   2.6075858085817E+01
(PID.TID 0000.0001) %MON exf_lwdown_del2              =   1.3351334749920E-01
(PID.TID 0000.0001) %MON exf_apressure_max            =   1.0278842789597E+05
(PID.TID 0000.0001) %MON exf_apressure_min            =   9.9983892237062E+04
(PID.TID 0000.0001) %MON exf_apressure_mean           =   1.0216063339349E+05
(PID.TID 0000.0001) %MON exf_apressure_sd             =   5.0022107601393E+02
(PID.TID 0000.0001) %MON exf_apressure_del2           =   3.9517872256091E+01
(PID.TID 0000.0001) %MON exf_runoff_max               =   4.4374791284855E-08
(PID.TID 0000.0001) %MON exf_runoff_min               =   0.0000000000000E+00
(PID.TID 0000.0001) %MON exf_runoff_mean              =   1.5884794052194E-09
(PID.TID 0000.0001) %MON exf_runoff_sd                =   5.3901957917178E-09
(PID.TID 0000.0001) %MON exf_runoff_del2              =   2.2191214937507E-12
(PID.TID 0000.0001) // =======================================================
(PID.TID 0000.0001) // End MONITOR EXF statistics
(PID.TID 0000.0001) // =======================================================
 cg2d: Sum(rhs),rhsMax =   2.68719078671370E+02  4.22472048246178E-02
(PID.TID 0000.0001)      cg2d_init_res =   1.16813328726503E+00
(PID.TID 0000.0001)      cg2d_iters(min,last) =      -1     314
(PID.TID 0000.0001)      cg2d_last_res =   6.67576145191186E-12
(PID.TID 0000.0001) // =======================================================
(PID.TID 0000.0001) // Begin MONITOR dynamic field statistics
(PID.TID 0000.0001) // =======================================================
(PID.TID 0000.0001) %MON time_tsnumber                =                     3
(PID.TID 0000.0001) %MON time_secondsf                =   7.2000000000000E+02
(PID.TID 0000.0001) %MON dynstat_eta_max              =   1.5404409365277E+00
(PID.TID 0000.0001) %MON dynstat_eta_min              =  -4.5707833621813E-01
(PID.TID 0000.0001) %MON dynstat_eta_mean             =  -9.1383568744708E-03
(PID.TID 0000.0001) %MON dynstat_eta_sd               =   6.8030460380540E-02
(PID.TID 0000.0001) %MON dynstat_eta_del2             =   1.7597474673960E-06
(PID.TID 0000.0001) %MON dynstat_uvel_max             =   7.8029652306019E-01
(PID.TID 0000.0001) %MON dynstat_uvel_min             =  -2.8300329399193E-01
(PID.TID 0000.0001) %MON dynstat_uvel_mean            =  -2.9843640742900E-04
(PID.TID 0000.0001) %MON dynstat_uvel_sd              =   1.7031968272866E-02
(PID.TID 0000.0001) %MON dynstat_uvel_del2            =   1.2572243553611E-07
(PID.TID 0000.0001) %MON dynstat_vvel_max             =   7.1843589278169E-01
(PID.TID 0000.0001) %MON dynstat_vvel_min             =  -5.9817851694385E-01
(PID.TID 0000.0001) %MON dynstat_vvel_mean            =  -2.1749283264772E-03
(PID.TID 0000.0001) %MON dynstat_vvel_sd              =   1.6014570327367E-02
(PID.TID 0000.0001) %MON dynstat_vvel_del2            =   1.1295358015240E-07
(PID.TID 0000.0001) %MON dynstat_wvel_max             =   6.6807115855032E-03
(PID.TID 0000.0001) %MON dynstat_wvel_min             =  -6.2512906387360E-03
(PID.TID 0000.0001) %MON dynstat_wvel_mean            =  -8.5649532568242E-06
(PID.TID 0000.0001) %MON dynstat_wvel_sd              =   9.4749748798072E-05
(PID.TID 0000.0001) %MON dynstat_wvel_del2            =   1.1745177016093E-08
(PID.TID 0000.0001) %MON dynstat_theta_max            =   2.5556831270834E+01
(PID.TID 0000.0001) %MON dynstat_theta_min            =   1.4441539165426E+00
(PID.TID 0000.0001) %MON dynstat_theta_mean           =   5.5933895820993E+00
(PID.TID 0000.0001) %MON dynstat_theta_sd             =   4.7973240402179E+00
(PID.TID 0000.0001) %MON dynstat_theta_del2           =   1.4880500066892E-06
(PID.TID 0000.0001) %MON dynstat_salt_max             =   3.8096574547403E+01
(PID.TID 0000.0001) %MON dynstat_salt_min             =   3.0529510297771E+01
(PID.TID 0000.0001) %MON dynstat_salt_mean            =   3.5189816926584E+01
(PID.TID 0000.0001) %MON dynstat_salt_sd              =   4.6940603405228E-01
(PID.TID 0000.0001) %MON dynstat_salt_del2            =   2.7206225321808E-07
(PID.TID 0000.0001) %MON forcing_qnet_max             =   7.3326893254049E+02
(PID.TID 0000.0001) %MON forcing_qnet_min             =  -2.9665915517346E+02
(PID.TID 0000.0001) %MON forcing_qnet_mean            =   2.0564781222047E+02
(PID.TID 0000.0001) %MON forcing_qnet_sd              =   1.2606481140486E+02
(PID.TID 0000.0001) %MON forcing_qnet_del2            =   9.0520515238898E-04
(PID.TID 0000.0001) %MON forcing_qsw_max              =   0.0000000000000E+00
(PID.TID 0000.0001) %MON forcing_qsw_min              =   0.0000000000000E+00
(PID.TID 0000.0001) %MON forcing_qsw_mean             =   0.0000000000000E+00
(PID.TID 0000.0001) %MON forcing_qsw_sd               =   0.0000000000000E+00
(PID.TID 0000.0001) %MON forcing_qsw_del2             =   0.0000000000000E+00
(PID.TID 0000.0001) %MON forcing_empmr_max            =   1.7634494492807E-04
(PID.TID 0000.0001) %MON forcing_empmr_min            =  -1.0175141789367E-03
(PID.TID 0000.0001) %MON forcing_empmr_mean           =   2.7811533129143E-06
(PID.TID 0000.0001) %MON forcing_empmr_sd             =   9.9834258913075E-05
(PID.TID 0000.0001) %MON forcing_empmr_del2           =   2.5311836479389E-09
(PID.TID 0000.0001) %MON forcing_fu_max               =   7.9708383313597E-01
(PID.TID 0000.0001) %MON forcing_fu_min               =  -4.1543259823682E-01
(PID.TID 0000.0001) %MON forcing_fu_mean              =   6.3275420398795E-02
(PID.TID 0000.0001) %MON forcing_fu_sd                =   1.5468413769268E-01
(PID.TID 0000.0001) %MON forcing_fu_del2              =   3.3371357072110E-07
(PID.TID 0000.0001) %MON forcing_fv_max               =   4.3190803551891E-01
(PID.TID 0000.0001) %MON forcing_fv_min               =  -5.7026566644578E-01
(PID.TID 0000.0001) %MON forcing_fv_mean              =   1.0373518926129E-02
(PID.TID 0000.0001) %MON forcing_fv_sd                =   1.0201425403976E-01
(PID.TID 0000.0001) %MON forcing_fv_del2              =   2.7203152945904E-07
(PID.TID 0000.0001) %MON trAdv_CFL_u_max              =   5.5639757181650E-02
(PID.TID 0000.0001) %MON trAdv_CFL_v_max              =   4.5878561243417E-02
(PID.TID 0000.0001) %MON trAdv_CFL_w_max              =   2.0457266283016E-01
(PID.TID 0000.0001) %MON advcfl_uvel_max              =   5.5639756621620E-02
(PID.TID 0000.0001) %MON advcfl_vvel_max              =   4.5880329108264E-02
(PID.TID 0000.0001) %MON advcfl_wvel_max              =   2.0615849742575E-01
(PID.TID 0000.0001) %MON advcfl_W_hf_max              =   2.0776911068688E-01
(PID.TID 0000.0001) %MON pe_b_mean                    =  -2.1935980681331E-04
(PID.TID 0000.0001) %MON ke_max                       =   3.0772851964796E-01
(PID.TID 0000.0001) %MON ke_mean                      =   2.7349455457077E-04
(PID.TID 0000.0001) %MON ke_vol                       =   4.5818637279721E+16
(PID.TID 0000.0001) %MON vort_r_min                   =  -2.7002328152994E-04
(PID.TID 0000.0001) %MON vort_r_max                   =   3.6084129436803E-04
(PID.TID 0000.0001) %MON vort_a_mean                  =   8.2147589792658E-05
(PID.TID 0000.0001) %MON vort_a_sd                    =   9.7037857633197E-06
(PID.TID 0000.0001) %MON vort_p_mean                  =   8.4848810006938E-05
(PID.TID 0000.0001) %MON vort_p_sd                    =   3.5001632709413E-05
(PID.TID 0000.0001) %MON surfExpan_theta_mean         =  -2.4763890362036E-04
(PID.TID 0000.0001) %MON surfExpan_salt_mean          =  -4.3449680935356E-04
(PID.TID 0000.0001) // =======================================================
(PID.TID 0000.0001) // End MONITOR dynamic field statistics
(PID.TID 0000.0001) // =======================================================
(PID.TID 0000.0001) // =======================================================
(PID.TID 0000.0001) // Begin OBCS MONITOR field statistics
(PID.TID 0000.0001) // =======================================================
(PID.TID 0000.0001) %MON obc_N_vVel_max               =   7.4904121154858E-02
(PID.TID 0000.0001) %MON obc_N_vVel_min               =  -5.9817851694385E-01
(PID.TID 0000.0001) %MON obc_N_vVel_mean              =  -6.1043205345299E-03
(PID.TID 0000.0001) %MON obc_N_vVel_sd                =   1.6492375155166E-02
(PID.TID 0000.0001) %MON obc_N_vVel_Int               =  -8.7383864039015E+07
(PID.TID 0000.0001) %MON obc_S_vVel_max               =   6.3998957064560E-01
(PID.TID 0000.0001) %MON obc_S_vVel_min               =  -1.0770795597149E-01
(PID.TID 0000.0001) %MON obc_S_vVel_mean              =  -7.2092216827642E-03
(PID.TID 0000.0001) %MON obc_S_vVel_sd                =   2.0123228950330E-02
(PID.TID 0000.0001) %MON obc_S_vVel_Int               =  -2.1946961240824E+08
(PID.TID 0000.0001) %MON obc_N_theta_max              =   1.6146028115013E+01
(PID.TID 0000.0001) %MON obc_N_theta_min              =   1.6879694025456E+00
(PID.TID 0000.0001) %MON obc_N_theta_mean             =   5.2226009605219E+00
(PID.TID 0000.0001) %MON obc_N_theta_sd               =   3.6304117365336E+00
(PID.TID 0000.0001) %MON obc_S_theta_max              =   2.5392524558138E+01
(PID.TID 0000.0001) %MON obc_S_theta_min              =   1.5161809967447E+00
(PID.TID 0000.0001) %MON obc_S_theta_mean             =   5.4082501501664E+00
(PID.TID 0000.0001) %MON obc_S_theta_sd               =   5.1183396498877E+00
(PID.TID 0000.0001) %MON obc_N_salt_max               =   3.6395880489885E+01
(PID.TID 0000.0001) %MON obc_N_salt_min               =   3.0617519685979E+01
(PID.TID 0000.0001) %MON obc_N_salt_mean              =   3.5063771945304E+01
(PID.TID 0000.0001) %MON obc_N_salt_sd                =   3.9120123976821E-01
(PID.TID 0000.0001) %MON obc_S_salt_max               =   3.7332495788219E+01
(PID.TID 0000.0001) %MON obc_S_salt_min               =   3.4852181423535E+01
(PID.TID 0000.0001) %MON obc_S_salt_mean              =   3.5186250821307E+01
(PID.TID 0000.0001) %MON obc_S_salt_sd                =   5.1365349704265E-01
(PID.TID 0000.0001) // =======================================================
(PID.TID 0000.0001) // End OBCS MONITOR field statistics
(PID.TID 0000.0001) // =======================================================
(PID.TID 0000.0001) // =======================================================
(PID.TID 0000.0001) // Begin MONITOR EXF statistics
(PID.TID 0000.0001) // =======================================================
(PID.TID 0000.0001) %MON exf_tsnumber                 =                     3
(PID.TID 0000.0001) %MON exf_time_sec                 =   7.2000000000000E+02
(PID.TID 0000.0001) %MON exf_ustress_max              =   7.9190868998540E-01
(PID.TID 0000.0001) %MON exf_ustress_min              =  -4.1242245527477E-01
(PID.TID 0000.0001) %MON exf_ustress_mean             =   6.3159872101822E-02
(PID.TID 0000.0001) %MON exf_ustress_sd               =   1.5416208213875E-01
(PID.TID 0000.0001) %MON exf_ustress_del2             =   3.3338485635651E-07
(PID.TID 0000.0001) %MON exf_vstress_max              =   4.2471093741144E-01
(PID.TID 0000.0001) %MON exf_vstress_min              =  -5.6552789544070E-01
(PID.TID 0000.0001) %MON exf_vstress_mean             =   1.0373045193373E-02
(PID.TID 0000.0001) %MON exf_vstress_sd               =   1.0145853799679E-01
(PID.TID 0000.0001) %MON exf_vstress_del2             =   2.7876079970956E-07
(PID.TID 0000.0001) %MON exf_hflux_max                =   7.1604844106382E+02
(PID.TID 0000.0001) %MON exf_hflux_min                =  -2.9281450355405E+02
(PID.TID 0000.0001) %MON exf_hflux_mean               =   2.0403968505852E+02
(PID.TID 0000.0001) %MON exf_hflux_sd                 =   1.2318737641654E+02
(PID.TID 0000.0001) %MON exf_hflux_del2               =   9.3790391377350E-02
(PID.TID 0000.0001) %MON exf_sflux_max                =   1.7498209204042E-07
(PID.TID 0000.0001) %MON exf_sflux_min                =  -1.1425853674605E-06
(PID.TID 0000.0001) %MON exf_sflux_mean               =   3.6680805739287E-09
(PID.TID 0000.0001) %MON exf_sflux_sd                 =   1.0360092955875E-07
(PID.TID 0000.0001) %MON exf_sflux_del2               =   4.1254055387714E-11
(PID.TID 0000.0001) %MON exf_uwind_max                =   1.9100254501147E+01
(PID.TID 0000.0001) %MON exf_uwind_min                =  -1.5037261511176E+01
(PID.TID 0000.0001) %MON exf_uwind_mean               =   2.5031445870642E+00
(PID.TID 0000.0001) %MON exf_uwind_sd                 =   6.6687694049211E+00
(PID.TID 0000.0001) %MON exf_uwind_del2               =   2.8436412985394E-03
(PID.TID 0000.0001) %MON exf_vwind_max                =   1.4529576297704E+01
(PID.TID 0000.0001) %MON exf_vwind_min                =  -1.2785986463811E+01
(PID.TID 0000.0001) %MON exf_vwind_mean               =   8.4252414526565E-01
(PID.TID 0000.0001) %MON exf_vwind_sd                 =   5.2065091386998E+00
(PID.TID 0000.0001) %MON exf_vwind_del2               =   2.0955287704246E-03
(PID.TID 0000.0001) %MON exf_wspeed_max               =   2.0419725803004E+01
(PID.TID 0000.0001) %MON exf_wspeed_min               =   2.6353159999464E-03
(PID.TID 0000.0001) %MON exf_wspeed_mean              =   7.7329501298861E+00
(PID.TID 0000.0001) %MON exf_wspeed_sd                =   4.3309681175430E+00
(PID.TID 0000.0001) %MON exf_wspeed_del2              =   3.5320350170346E-03
(PID.TID 0000.0001) %MON exf_atemp_max                =   2.9817123230001E+02
(PID.TID 0000.0001) %MON exf_atemp_min                =   2.7447495504971E+02
(PID.TID 0000.0001) %MON exf_atemp_mean               =   2.9069278317489E+02
(PID.TID 0000.0001) %MON exf_atemp_sd                 =   3.9438218287336E+00
(PID.TID 0000.0001) %MON exf_atemp_del2               =   6.8459620303780E-03
(PID.TID 0000.0001) %MON exf_aqh_max                  =   1.6801516630708E-02
(PID.TID 0000.0001) %MON exf_aqh_min                  =   2.7331788391884E-03
(PID.TID 0000.0001) %MON exf_aqh_mean                 =   9.4252080431013E-03
(PID.TID 0000.0001) %MON exf_aqh_sd                   =   2.8726446397291E-03
(PID.TID 0000.0001) %MON exf_aqh_del2                 =   3.7518848476227E-06
(PID.TID 0000.0001) %MON exf_lwflux_max               =   1.5880364293393E+02
(PID.TID 0000.0001) %MON exf_lwflux_min               =   1.4296514069503E+01
(PID.TID 0000.0001) %MON exf_lwflux_mean              =   6.4251071902420E+01
(PID.TID 0000.0001) %MON exf_lwflux_sd                =   2.1471803958392E+01
(PID.TID 0000.0001) %MON exf_lwflux_del2              =   2.6077531636324E-02
(PID.TID 0000.0001) %MON exf_evap_max                 =   1.9544492294841E-07
(PID.TID 0000.0001) %MON exf_evap_min                 =  -9.9693805469766E-08
(PID.TID 0000.0001) %MON exf_evap_mean                =   4.9649831786824E-08
(PID.TID 0000.0001) %MON exf_evap_sd                  =   3.8917489158305E-08
(PID.TID 0000.0001) %MON exf_evap_del2                =   2.4926674600277E-11
(PID.TID 0000.0001) %MON exf_precip_max               =   1.3194515830690E-06
(PID.TID 0000.0001) %MON exf_precip_min               =   0.0000000000000E+00
(PID.TID 0000.0001) %MON exf_precip_mean              =   4.4393271807676E-08
(PID.TID 0000.0001) %MON exf_precip_sd                =   1.0414728851172E-07
(PID.TID 0000.0001) %MON exf_precip_del2              =   4.5592101186006E-11
(PID.TID 0000.0001) %MON exf_swflux_max               =   0.0000000000000E+00
(PID.TID 0000.0001) %MON exf_swflux_min               =   0.0000000000000E+00
(PID.TID 0000.0001) %MON exf_swflux_mean              =   0.0000000000000E+00
(PID.TID 0000.0001) %MON exf_swflux_sd                =   0.0000000000000E+00
(PID.TID 0000.0001) %MON exf_swflux_del2              =   0.0000000000000E+00
(PID.TID 0000.0001) %MON exf_swdown_max               =   0.0000000000000E+00
(PID.TID 0000.0001) %MON exf_swdown_min               =   0.0000000000000E+00
(PID.TID 0000.0001) %MON exf_swdown_mean              =   0.0000000000000E+00
(PID.TID 0000.0001) %MON exf_swdown_sd                =   0.0000000000000E+00
(PID.TID 0000.0001) %MON exf_swdown_del2              =   0.0000000000000E+00
(PID.TID 0000.0001) %MON exf_lwdown_max               =   3.9966788667862E+02
(PID.TID 0000.0001) %MON exf_lwdown_min               =   2.2872729573522E+02
(PID.TID 0000.0001) %MON exf_lwdown_mean              =   3.4604191746690E+02
(PID.TID 0000.0001) %MON exf_lwdown_sd                =   2.6718022331913E+01
(PID.TID 0000.0001) %MON exf_lwdown_del2              =   1.3384315481687E-01
(PID.TID 0000.0001) %MON exf_apressure_max            =   1.0278993892836E+05
(PID.TID 0000.0001) %MON exf_apressure_min            =   9.9988779524667E+04
(PID.TID 0000.0001) %MON exf_apressure_mean           =   1.0216141070004E+05
(PID.TID 0000.0001) %MON exf_apressure_sd             =   4.9989954915976E+02
(PID.TID 0000.0001) %MON exf_apressure_del2           =   3.9518179258773E+01
(PID.TID 0000.0001) %MON exf_runoff_max               =   4.4374791284855E-08
(PID.TID 0000.0001) %MON exf_runoff_min               =   0.0000000000000E+00
(PID.TID 0000.0001) %MON exf_runoff_mean              =   1.5884794052194E-09
(PID.TID 0000.0001) %MON exf_runoff_sd                =   5.3901957917178E-09
(PID.TID 0000.0001) %MON exf_runoff_del2              =   2.2191214937507E-12
(PID.TID 0000.0001) // =======================================================
(PID.TID 0000.0001) // End MONITOR EXF statistics
(PID.TID 0000.0001) // =======================================================
 cg2d: Sum(rhs),rhsMax =   3.43976803931148E+02  4.03651827867602E-02
(PID.TID 0000.0001)      cg2d_init_res =   8.63590234533317E-01
(PID.TID 0000.0001)      cg2d_iters(min,last) =      -1     312
(PID.TID 0000.0001)      cg2d_last_res =   6.97774895399073E-12
(PID.TID 0000.0001) // =======================================================
(PID.TID 0000.0001) // Begin MONITOR dynamic field statistics
(PID.TID 0000.0001) // =======================================================
(PID.TID 0000.0001) %MON time_tsnumber                =                     4
(PID.TID 0000.0001) %MON time_secondsf                =   9.6000000000000E+02
(PID.TID 0000.0001) %MON dynstat_eta_max              =   1.4874778169772E+00
(PID.TID 0000.0001) %MON dynstat_eta_min              =  -4.4712063600656E-01
(PID.TID 0000.0001) %MON dynstat_eta_mean             =  -1.1697653945542E-02
(PID.TID 0000.0001) %MON dynstat_eta_sd               =   8.2890577540293E-02
(PID.TID 0000.0001) %MON dynstat_eta_del2             =   1.5359554741755E-06
(PID.TID 0000.0001) %MON dynstat_uvel_max             =   9.1319398141961E-01
(PID.TID 0000.0001) %MON dynstat_uvel_min             =  -3.1418074506072E-01
(PID.TID 0000.0001) %MON dynstat_uvel_mean            =  -4.7602592842744E-04
(PID.TID 0000.0001) %MON dynstat_uvel_sd              =   1.7099816445362E-02
(PID.TID 0000.0001) %MON dynstat_uvel_del2            =   1.3637761826338E-07
(PID.TID 0000.0001) %MON dynstat_vvel_max             =   7.9080258215459E-01
(PID.TID 0000.0001) %MON dynstat_vvel_min             =  -6.1441698098744E-01
(PID.TID 0000.0001) %MON dynstat_vvel_mean            =  -2.8003294577912E-03
(PID.TID 0000.0001) %MON dynstat_vvel_sd              =   1.6069551684816E-02
(PID.TID 0000.0001) %MON dynstat_vvel_del2            =   1.1532272122766E-07
(PID.TID 0000.0001) %MON dynstat_wvel_max             =   6.9662482887514E-03
(PID.TID 0000.0001) %MON dynstat_wvel_min             =  -6.1265846794041E-03
(PID.TID 0000.0001) %MON dynstat_wvel_mean            =  -7.9507392988605E-06
(PID.TID 0000.0001) %MON dynstat_wvel_sd              =   9.8891190009044E-05
(PID.TID 0000.0001) %MON dynstat_wvel_del2            =   1.1825197311929E-08
(PID.TID 0000.0001) %MON dynstat_theta_max            =   2.5556827925958E+01
(PID.TID 0000.0001) %MON dynstat_theta_min            =   1.4441539204185E+00
(PID.TID 0000.0001) %MON dynstat_theta_mean           =   5.5933962073460E+00
(PID.TID 0000.0001) %MON dynstat_theta_sd             =   4.7973292802563E+00
(PID.TID 0000.0001) %MON dynstat_theta_del2           =   1.4941680311581E-06
(PID.TID 0000.0001) %MON dynstat_salt_max             =   3.8096504377918E+01
(PID.TID 0000.0001) %MON dynstat_salt_min             =   3.0530166021813E+01
(PID.TID 0000.0001) %MON dynstat_salt_mean            =   3.5189817755646E+01
(PID.TID 0000.0001) %MON dynstat_salt_sd              =   4.6940903870715E-01
(PID.TID 0000.0001) %MON dynstat_salt_del2            =   2.7358940444638E-07
(PID.TID 0000.0001) %MON forcing_qnet_max             =   7.2525329337110E+02
(PID.TID 0000.0001) %MON forcing_qnet_min             =  -2.9791604021818E+02
(PID.TID 0000.0001) %MON forcing_qnet_mean            =   2.0486305477789E+02
(PID.TID 0000.0001) %MON forcing_qnet_sd              =   1.2517129483990E+02
(PID.TID 0000.0001) %MON forcing_qnet_del2            =   9.0966726107839E-04
(PID.TID 0000.0001) %MON forcing_qsw_max              =   0.0000000000000E+00
(PID.TID 0000.0001) %MON forcing_qsw_min              =   0.0000000000000E+00
(PID.TID 0000.0001) %MON forcing_qsw_mean             =   0.0000000000000E+00
(PID.TID 0000.0001) %MON forcing_qsw_sd               =   0.0000000000000E+00
(PID.TID 0000.0001) %MON forcing_qsw_del2             =   0.0000000000000E+00
(PID.TID 0000.0001) %MON forcing_empmr_max            =   1.7498209204042E-04
(PID.TID 0000.0001) %MON forcing_empmr_min            =  -1.1425853674605E-03
(PID.TID 0000.0001) %MON forcing_empmr_mean           =   3.6680805739287E-06
(PID.TID 0000.0001) %MON forcing_empmr_sd             =   1.0360092955875E-04
(PID.TID 0000.0001) %MON forcing_empmr_del2           =   2.6335867216047E-09
(PID.TID 0000.0001) %MON forcing_fu_max               =   7.9175137868455E-01
(PID.TID 0000.0001) %MON forcing_fu_min               =  -4.1241626232292E-01
(PID.TID 0000.0001) %MON forcing_fu_mean              =   6.3217317220595E-02
(PID.TID 0000.0001) %MON forcing_fu_sd                =   1.5421956402942E-01
(PID.TID 0000.0001) %MON forcing_fu_del2              =   3.1572915112816E-07
(PID.TID 0000.0001) %MON forcing_fv_max               =   4.2432941929684E-01
(PID.TID 0000.0001) %MON forcing_fv_min               =  -5.6823587016241E-01
(PID.TID 0000.0001) %MON forcing_fv_mean              =   1.0354132783702E-02
(PID.TID 0000.0001) %MON forcing_fv_sd                =   1.0158628148419E-01
(PID.TID 0000.0001) %MON forcing_fv_del2              =   2.5435227481245E-07
(PID.TID 0000.0001) %MON trAdv_CFL_u_max              =   6.5116131988726E-02
(PID.TID 0000.0001) %MON trAdv_CFL_v_max              =   5.0116619747623E-02
(PID.TID 0000.0001) %MON trAdv_CFL_w_max              =   2.0657395989516E-01
(PID.TID 0000.0001) %MON advcfl_uvel_max              =   6.5116131333313E-02
(PID.TID 0000.0001) %MON advcfl_vvel_max              =   5.0129908011202E-02
(PID.TID 0000.0001) %MON advcfl_wvel_max              =   2.1048760005420E-01
(PID.TID 0000.0001) %MON advcfl_W_hf_max              =   2.1489672100251E-01
(PID.TID 0000.0001) %MON pe_b_mean                    =  -2.7966064865889E-04
(PID.TID 0000.0001) %MON ke_max                       =   3.7256584720203E-01
(PID.TID 0000.0001) %MON ke_mean                      =   2.7713835629708E-04
(PID.TID 0000.0001) %MON ke_vol                       =   4.5818637279721E+16
(PID.TID 0000.0001) %MON vort_r_min                   =  -2.8260668273985E-04
(PID.TID 0000.0001) %MON vort_r_max                   =   4.0304337902960E-04
(PID.TID 0000.0001) %MON vort_a_mean                  =   8.2147589944366E-05
(PID.TID 0000.0001) %MON vort_a_sd                    =   9.7043524549115E-06
(PID.TID 0000.0001) %MON vort_p_mean                  =   8.4848810163635E-05
(PID.TID 0000.0001) %MON vort_p_sd                    =   3.5000953840843E-05
(PID.TID 0000.0001) %MON surfExpan_theta_mean         =  -2.0835804268705E-04
(PID.TID 0000.0001) %MON surfExpan_salt_mean          =  -3.9174877228479E-04
(PID.TID 0000.0001) // =======================================================
(PID.TID 0000.0001) // End MONITOR dynamic field statistics
(PID.TID 0000.0001) // =======================================================
(PID.TID 0000.0001) // =======================================================
(PID.TID 0000.0001) // Begin OBCS MONITOR field statistics
(PID.TID 0000.0001) // =======================================================
(PID.TID 0000.0001) %MON obc_N_vVel_max               =   7.4795482653396E-02
(PID.TID 0000.0001) %MON obc_N_vVel_min               =  -6.0074422521223E-01
(PID.TID 0000.0001) %MON obc_N_vVel_mean              =  -6.2392808304396E-03
(PID.TID 0000.0001) %MON obc_N_vVel_sd                =   1.6567617016801E-02
(PID.TID 0000.0001) %MON obc_N_vVel_Int               =  -8.9315832074069E+07
(PID.TID 0000.0001) %MON obc_S_vVel_max               =   6.4090137732273E-01
(PID.TID 0000.0001) %MON obc_S_vVel_min               =  -1.0758236534381E-01
(PID.TID 0000.0001) %MON obc_S_vVel_mean              =  -6.8926313341004E-03
(PID.TID 0000.0001) %MON obc_S_vVel_sd                =   2.0108899348170E-02
(PID.TID 0000.0001) %MON obc_S_vVel_Int               =  -2.0983168418646E+08
(PID.TID 0000.0001) %MON obc_N_theta_max              =   1.6146033706421E+01
(PID.TID 0000.0001) %MON obc_N_theta_min              =   1.6879007283449E+00
(PID.TID 0000.0001) %MON obc_N_theta_mean             =   5.2225990342332E+00
(PID.TID 0000.0001) %MON obc_N_theta_sd               =   3.6304079514652E+00
(PID.TID 0000.0001) %MON obc_S_theta_max              =   2.5392512280958E+01
(PID.TID 0000.0001) %MON obc_S_theta_min              =   1.5161809750297E+00
(PID.TID 0000.0001) %MON obc_S_theta_mean             =   5.4082492290185E+00
(PID.TID 0000.0001) %MON obc_S_theta_sd               =   5.1183364544643E+00
(PID.TID 0000.0001) %MON obc_N_salt_max               =   3.6395881833340E+01
(PID.TID 0000.0001) %MON obc_N_salt_min               =   3.0617536249581E+01
(PID.TID 0000.0001) %MON obc_N_salt_mean              =   3.5063772015656E+01
(PID.TID 0000.0001) %MON obc_N_salt_sd                =   3.9120086771836E-01
(PID.TID 0000.0001) %MON obc_S_salt_max               =   3.7332486409094E+01
(PID.TID 0000.0001) %MON obc_S_salt_min               =   3.4852181421794E+01
(PID.TID 0000.0001) %MON obc_S_salt_mean              =   3.5186250861803E+01
(PID.TID 0000.0001) %MON obc_S_salt_sd                =   5.1365358313679E-01
(PID.TID 0000.0001) // =======================================================
(PID.TID 0000.0001) // End OBCS MONITOR field statistics
(PID.TID 0000.0001) // =======================================================
(PID.TID 0000.0001) // =======================================================
(PID.TID 0000.0001) // Begin MONITOR EXF statistics
(PID.TID 0000.0001) // =======================================================
(PID.TID 0000.0001) %MON exf_tsnumber                 =                     4
(PID.TID 0000.0001) %MON exf_time_sec                 =   9.6000000000000E+02
(PID.TID 0000.0001) %MON exf_ustress_max              =   7.8711007108340E-01
(PID.TID 0000.0001) %MON exf_ustress_min              =  -4.0954084691915E-01
(PID.TID 0000.0001) %MON exf_ustress_mean             =   6.3136673891169E-02
(PID.TID 0000.0001) %MON exf_ustress_sd               =   1.5380433014229E-01
(PID.TID 0000.0001) %MON exf_ustress_del2             =   3.2062171659189E-07
(PID.TID 0000.0001) %MON exf_vstress_max              =   4.1927059213486E-01
(PID.TID 0000.0001) %MON exf_vstress_min              =  -5.6366641188792E-01
(PID.TID 0000.0001) %MON exf_vstress_mean             =   1.0370195860996E-02
(PID.TID 0000.0001) %MON exf_vstress_sd               =   1.0113583109349E-01
(PID.TID 0000.0001) %MON exf_vstress_del2             =   2.6606904752174E-07
(PID.TID 0000.0001) %MON exf_hflux_max                =   7.0896729504481E+02
(PID.TID 0000.0001) %MON exf_hflux_min                =  -2.9449040509700E+02
(PID.TID 0000.0001) %MON exf_hflux_mean               =   2.0320669280901E+02
(PID.TID 0000.0001) %MON exf_hflux_sd                 =   1.2258749302332E+02
(PID.TID 0000.0001) %MON exf_hflux_del2               =   9.3382271561527E-02
(PID.TID 0000.0001) %MON exf_sflux_max                =   1.7365158931808E-07
(PID.TID 0000.0001) %MON exf_sflux_min                =  -1.2676345867946E-06
(PID.TID 0000.0001) %MON exf_sflux_mean               =   4.5650273527935E-09
(PID.TID 0000.0001) %MON exf_sflux_sd                 =   1.0870935136202E-07
(PID.TID 0000.0001) %MON exf_sflux_del2               =   4.3427404223539E-11
(PID.TID 0000.0001) %MON exf_uwind_max                =   1.9063637523966E+01
(PID.TID 0000.0001) %MON exf_uwind_min                =  -1.5002866143086E+01
(PID.TID 0000.0001) %MON exf_uwind_mean               =   2.5039138018182E+00
(PID.TID 0000.0001) %MON exf_uwind_sd                 =   6.6645121818619E+00
(PID.TID 0000.0001) %MON exf_uwind_del2               =   2.8420968430208E-03
(PID.TID 0000.0001) %MON exf_vwind_max                =   1.4459666219824E+01
(PID.TID 0000.0001) %MON exf_vwind_min                =  -1.2775369953741E+01
(PID.TID 0000.0001) %MON exf_vwind_mean               =   8.4415991050462E-01
(PID.TID 0000.0001) %MON exf_vwind_sd                 =   5.1977148068270E+00
(PID.TID 0000.0001) %MON exf_vwind_del2               =   2.0924449151911E-03
(PID.TID 0000.0001) %MON exf_wspeed_max               =   2.0371881053602E+01
(PID.TID 0000.0001) %MON exf_wspeed_min               =   6.1928260216690E-03
(PID.TID 0000.0001) %MON exf_wspeed_mean              =   7.7257163394103E+00
(PID.TID 0000.0001) %MON exf_wspeed_sd                =   4.3275234441541E+00
(PID.TID 0000.0001) %MON exf_wspeed_del2              =   3.5289776205001E-03
(PID.TID 0000.0001) %MON exf_atemp_max                =   2.9816903501159E+02
(PID.TID 0000.0001) %MON exf_atemp_min                =   2.7444935384107E+02
(PID.TID 0000.0001) %MON exf_atemp_mean               =   2.9068966196870E+02
(PID.TID 0000.0001) %MON exf_atemp_sd                 =   3.9435706603967E+00
(PID.TID 0000.0001) %MON exf_atemp_del2               =   6.8447098796181E-03
(PID.TID 0000.0001) %MON exf_aqh_max                  =   1.6794530329835E-02
(PID.TID 0000.0001) %MON exf_aqh_min                  =   2.7308841414245E-03
(PID.TID 0000.0001) %MON exf_aqh_mean                 =   9.4240198902872E-03
(PID.TID 0000.0001) %MON exf_aqh_sd                   =   2.8724836765692E-03
(PID.TID 0000.0001) %MON exf_aqh_del2                 =   3.7513295547110E-06
(PID.TID 0000.0001) %MON exf_lwflux_max               =   1.5988494468989E+02
(PID.TID 0000.0001) %MON exf_lwflux_min               =   1.2621548253307E+01
(PID.TID 0000.0001) %MON exf_lwflux_mean              =   6.3475832832976E+01
(PID.TID 0000.0001) %MON exf_lwflux_sd                =   2.2322985073879E+01
(PID.TID 0000.0001) %MON exf_lwflux_del2              =   2.5897426435994E-02
(PID.TID 0000.0001) %MON exf_evap_max                 =   1.9449767064417E-07
(PID.TID 0000.0001) %MON exf_evap_min                 =  -9.9280465710901E-08
(PID.TID 0000.0001) %MON exf_evap_mean                =   4.9622912736841E-08
(PID.TID 0000.0001) %MON exf_evap_sd                  =   3.8836437887432E-08
(PID.TID 0000.0001) %MON exf_evap_del2                =   2.4899965460616E-11
(PID.TID 0000.0001) %MON exf_precip_max               =   1.4451136385994E-06
(PID.TID 0000.0001) %MON exf_precip_min               =   0.0000000000000E+00
(PID.TID 0000.0001) %MON exf_precip_mean              =   4.3469405978828E-08
(PID.TID 0000.0001) %MON exf_precip_sd                =   1.1052624745011E-07
(PID.TID 0000.0001) %MON exf_precip_del2              =   4.7937600306997E-11
(PID.TID 0000.0001) %MON exf_swflux_max               =   0.0000000000000E+00
(PID.TID 0000.0001) %MON exf_swflux_min               =   0.0000000000000E+00
(PID.TID 0000.0001) %MON exf_swflux_mean              =   0.0000000000000E+00
(PID.TID 0000.0001) %MON exf_swflux_sd                =   0.0000000000000E+00
(PID.TID 0000.0001) %MON exf_swflux_del2              =   0.0000000000000E+00
(PID.TID 0000.0001) %MON exf_swdown_max               =   0.0000000000000E+00
(PID.TID 0000.0001) %MON exf_swdown_min               =   0.0000000000000E+00
(PID.TID 0000.0001) %MON exf_swdown_mean              =   0.0000000000000E+00
(PID.TID 0000.0001) %MON exf_swdown_sd                =   0.0000000000000E+00
(PID.TID 0000.0001) %MON exf_swdown_del2              =   0.0000000000000E+00
(PID.TID 0000.0001) %MON exf_lwdown_max               =   4.0121792842509E+02
(PID.TID 0000.0001) %MON exf_lwdown_min               =   2.2846849151524E+02
(PID.TID 0000.0001) %MON exf_lwdown_mean              =   3.4683597144715E+02
(PID.TID 0000.0001) %MON exf_lwdown_sd                =   2.7582523170917E+01
(PID.TID 0000.0001) %MON exf_lwdown_del2              =   1.3418033850420E-01
(PID.TID 0000.0001) %MON exf_apressure_max            =   1.0279144996075E+05
(PID.TID 0000.0001) %MON exf_apressure_min            =   9.9993666812272E+04
(PID.TID 0000.0001) %MON exf_apressure_mean           =   1.0216218800660E+05
(PID.TID 0000.0001) %MON exf_apressure_sd             =   4.9961757351804E+02
(PID.TID 0000.0001) %MON exf_apressure_del2           =   3.9518486342875E+01
(PID.TID 0000.0001) %MON exf_runoff_max               =   4.4374791284855E-08
(PID.TID 0000.0001) %MON exf_runoff_min               =   0.0000000000000E+00
(PID.TID 0000.0001) %MON exf_runoff_mean              =   1.5884794052194E-09
(PID.TID 0000.0001) %MON exf_runoff_sd                =   5.3901957917178E-09
(PID.TID 0000.0001) %MON exf_runoff_del2              =   2.2191214937507E-12
(PID.TID 0000.0001) // =======================================================
(PID.TID 0000.0001) // End MONITOR EXF statistics
(PID.TID 0000.0001) // =======================================================
 cg2d: Sum(rhs),rhsMax =   4.11918970188065E+02  4.04399412374681E-02
(PID.TID 0000.0001)      cg2d_init_res =   7.67510711003953E-01
(PID.TID 0000.0001)      cg2d_iters(min,last) =      -1     311
(PID.TID 0000.0001)      cg2d_last_res =   6.96459965435786E-12
(PID.TID 0000.0001) // =======================================================
(PID.TID 0000.0001) // Begin MONITOR dynamic field statistics
(PID.TID 0000.0001) // =======================================================
(PID.TID 0000.0001) %MON time_tsnumber                =                     5
(PID.TID 0000.0001) %MON time_secondsf                =   1.2000000000000E+03
(PID.TID 0000.0001) %MON dynstat_eta_max              =   1.4160235267527E+00
(PID.TID 0000.0001) %MON dynstat_eta_min              =  -5.0582003078411E-01
(PID.TID 0000.0001) %MON dynstat_eta_mean             =  -1.4008170062039E-02
(PID.TID 0000.0001) %MON dynstat_eta_sd               =   9.6230762770492E-02
(PID.TID 0000.0001) %MON dynstat_eta_del2             =   1.3779875181282E-06
(PID.TID 0000.0001) %MON dynstat_uvel_max             =   9.3100621100080E-01
(PID.TID 0000.0001) %MON dynstat_uvel_min             =  -4.1186698886598E-01
(PID.TID 0000.0001) %MON dynstat_uvel_mean            =  -6.7023325756668E-04
(PID.TID 0000.0001) %MON dynstat_uvel_sd              =   1.7149946077373E-02
(PID.TID 0000.0001) %MON dynstat_uvel_del2            =   1.4625419773032E-07
(PID.TID 0000.0001) %MON dynstat_vvel_max             =   8.3562820508320E-01
(PID.TID 0000.0001) %MON dynstat_vvel_min             =  -6.2550625061673E-01
(PID.TID 0000.0001) %MON dynstat_vvel_mean            =  -3.3828385218678E-03
(PID.TID 0000.0001) %MON dynstat_vvel_sd              =   1.6126372436399E-02
(PID.TID 0000.0001) %MON dynstat_vvel_del2            =   1.2018922841751E-07
(PID.TID 0000.0001) %MON dynstat_wvel_max             =   7.0212586782899E-03
(PID.TID 0000.0001) %MON dynstat_wvel_min             =  -5.8490623902227E-03
(PID.TID 0000.0001) %MON dynstat_wvel_mean            =  -7.3272939671740E-06
(PID.TID 0000.0001) %MON dynstat_wvel_sd              =   1.0306748474819E-04
(PID.TID 0000.0001) %MON dynstat_wvel_del2            =   1.1857643895690E-08
(PID.TID 0000.0001) %MON dynstat_theta_max            =   2.5557087701282E+01
(PID.TID 0000.0001) %MON dynstat_theta_min            =   1.4441539242945E+00
(PID.TID 0000.0001) %MON dynstat_theta_mean           =   5.5934010178499E+00
(PID.TID 0000.0001) %MON dynstat_theta_sd             =   4.7973313998060E+00
(PID.TID 0000.0001) %MON dynstat_theta_del2           =   1.4991863377354E-06
(PID.TID 0000.0001) %MON dynstat_salt_max             =   3.8096427124545E+01
(PID.TID 0000.0001) %MON dynstat_salt_min             =   3.0530805631195E+01
(PID.TID 0000.0001) %MON dynstat_salt_mean            =   3.5189818226520E+01
(PID.TID 0000.0001) %MON dynstat_salt_sd              =   4.6941189043677E-01
(PID.TID 0000.0001) %MON dynstat_salt_del2            =   2.7553409810590E-07
(PID.TID 0000.0001) %MON forcing_qnet_max             =   7.1750005127881E+02
(PID.TID 0000.0001) %MON forcing_qnet_min             =  -2.9948498677232E+02
(PID.TID 0000.0001) %MON forcing_qnet_mean            =   2.0411098091264E+02
(PID.TID 0000.0001) %MON forcing_qnet_sd              =   1.2438342843494E+02
(PID.TID 0000.0001) %MON forcing_qnet_del2            =   9.1941317582105E-04
(PID.TID 0000.0001) %MON forcing_qsw_max              =   0.0000000000000E+00
(PID.TID 0000.0001) %MON forcing_qsw_min              =   0.0000000000000E+00
(PID.TID 0000.0001) %MON forcing_qsw_mean             =   0.0000000000000E+00
(PID.TID 0000.0001) %MON forcing_qsw_sd               =   0.0000000000000E+00
(PID.TID 0000.0001) %MON forcing_qsw_del2             =   0.0000000000000E+00
(PID.TID 0000.0001) %MON forcing_empmr_max            =   1.7365158931808E-04
(PID.TID 0000.0001) %MON forcing_empmr_min            =  -1.2676345867946E-03
(PID.TID 0000.0001) %MON forcing_empmr_mean           =   4.5650273527935E-06
(PID.TID 0000.0001) %MON forcing_empmr_sd             =   1.0870935136202E-04
(PID.TID 0000.0001) %MON forcing_empmr_del2           =   2.7703386688145E-09
(PID.TID 0000.0001) %MON forcing_fu_max               =   7.8677935438083E-01
(PID.TID 0000.0001) %MON forcing_fu_min               =  -4.0948289126760E-01
(PID.TID 0000.0001) %MON forcing_fu_mean              =   6.3194474880445E-02
(PID.TID 0000.0001) %MON forcing_fu_sd                =   1.5386206095066E-01
(PID.TID 0000.0001) %MON forcing_fu_del2              =   3.0220120969005E-07
(PID.TID 0000.0001) %MON forcing_fv_max               =   4.1895485860822E-01
(PID.TID 0000.0001) %MON forcing_fv_min               =  -5.6664399639845E-01
(PID.TID 0000.0001) %MON forcing_fv_mean              =   1.0351514356398E-02
(PID.TID 0000.0001) %MON forcing_fv_sd                =   1.0126413104135E-01
(PID.TID 0000.0001) %MON forcing_fv_del2              =   2.4129818825434E-07
(PID.TID 0000.0001) %MON trAdv_CFL_u_max              =   6.6386249308836E-02
(PID.TID 0000.0001) %MON trAdv_CFL_v_max              =   5.2957415604843E-02
(PID.TID 0000.0001) %MON trAdv_CFL_w_max              =   2.0877342123861E-01
(PID.TID 0000.0001) %MON advcfl_uvel_max              =   6.6386248640640E-02
(PID.TID 0000.0001) %MON advcfl_vvel_max              =   5.2971457096479E-02
(PID.TID 0000.0001) %MON advcfl_wvel_max              =   2.1263416355844E-01
(PID.TID 0000.0001) %MON advcfl_W_hf_max              =   2.1708824895174E-01
(PID.TID 0000.0001) %MON pe_b_mean                    =  -3.3366240419106E-04
(PID.TID 0000.0001) %MON ke_max                       =   4.1655964806312E-01
(PID.TID 0000.0001) %MON ke_mean                      =   2.8080355657816E-04
(PID.TID 0000.0001) %MON ke_vol                       =   4.5818637279721E+16
(PID.TID 0000.0001) %MON vort_r_min                   =  -2.8672432059297E-04
(PID.TID 0000.0001) %MON vort_r_max                   =   4.0834789208949E-04
(PID.TID 0000.0001) %MON vort_a_mean                  =   8.2147590111463E-05
(PID.TID 0000.0001) %MON vort_a_sd                    =   9.7049495306645E-06
(PID.TID 0000.0001) %MON vort_p_mean                  =   8.4848810336226E-05
(PID.TID 0000.0001) %MON vort_p_sd                    =   3.5000599220827E-05
(PID.TID 0000.0001) %MON surfExpan_theta_mean         =  -1.7182227821141E-04
(PID.TID 0000.0001) %MON surfExpan_salt_mean          =  -3.4916951346107E-04
(PID.TID 0000.0001) // =======================================================
(PID.TID 0000.0001) // End MONITOR dynamic field statistics
(PID.TID 0000.0001) // =======================================================
(PID.TID 0000.0001) // =======================================================
(PID.TID 0000.0001) // Begin OBCS MONITOR field statistics
(PID.TID 0000.0001) // =======================================================
(PID.TID 0000.0001) %MON obc_N_vVel_max               =   7.4691743168629E-02
(PID.TID 0000.0001) %MON obc_N_vVel_min               =  -6.0262950794057E-01
(PID.TID 0000.0001) %MON obc_N_vVel_mean              =  -6.3664618197084E-03
(PID.TID 0000.0001) %MON obc_N_vVel_sd                =   1.6634095857800E-02
(PID.TID 0000.0001) %MON obc_N_vVel_Int               =  -9.1136438677498E+07
(PID.TID 0000.0001) %MON obc_S_vVel_max               =   6.4179774281197E-01
(PID.TID 0000.0001) %MON obc_S_vVel_min               =  -1.0745867533534E-01
(PID.TID 0000.0001) %MON obc_S_vVel_mean              =  -6.5676180141110E-03
(PID.TID 0000.0001) %MON obc_S_vVel_sd                =   2.0093380403979E-02
(PID.TID 0000.0001) %MON obc_S_vVel_Int               =  -1.9993733629366E+08
(PID.TID 0000.0001) %MON obc_N_theta_max              =   1.6146039297829E+01
(PID.TID 0000.0001) %MON obc_N_theta_min              =   1.6878320541443E+00
(PID.TID 0000.0001) %MON obc_N_theta_mean             =   5.2225971079445E+00
(PID.TID 0000.0001) %MON obc_N_theta_sd               =   3.6304041664550E+00
(PID.TID 0000.0001) %MON obc_S_theta_max              =   2.5392500003777E+01
(PID.TID 0000.0001) %MON obc_S_theta_min              =   1.5161809533148E+00
(PID.TID 0000.0001) %MON obc_S_theta_mean             =   5.4082483078706E+00
(PID.TID 0000.0001) %MON obc_S_theta_sd               =   5.1183332590539E+00
(PID.TID 0000.0001) %MON obc_N_salt_max               =   3.6395883176796E+01
(PID.TID 0000.0001) %MON obc_N_salt_min               =   3.0617552813182E+01
(PID.TID 0000.0001) %MON obc_N_salt_mean              =   3.5063772086008E+01
(PID.TID 0000.0001) %MON obc_N_salt_sd                =   3.9120049569099E-01
(PID.TID 0000.0001) %MON obc_S_salt_max               =   3.7332477029970E+01
(PID.TID 0000.0001) %MON obc_S_salt_min               =   3.4852181420053E+01
(PID.TID 0000.0001) %MON obc_S_salt_mean              =   3.5186250902299E+01
(PID.TID 0000.0001) %MON obc_S_salt_sd                =   5.1365366923502E-01
(PID.TID 0000.0001) // =======================================================
(PID.TID 0000.0001) // End OBCS MONITOR field statistics
(PID.TID 0000.0001) // =======================================================
(PID.TID 0000.0001) // =======================================================
(PID.TID 0000.0001) // Begin MONITOR EXF statistics
(PID.TID 0000.0001) // =======================================================
(PID.TID 0000.0001) %MON exf_tsnumber                 =                     5
(PID.TID 0000.0001) %MON exf_time_sec                 =   1.2000000000000E+03
(PID.TID 0000.0001) %MON exf_ustress_max              =   7.8269426890613E-01
(PID.TID 0000.0001) %MON exf_ustress_min              =  -4.0672941929414E-01
(PID.TID 0000.0001) %MON exf_ustress_mean             =   6.3144748864478E-02
(PID.TID 0000.0001) %MON exf_ustress_sd               =   1.5354047273733E-01
(PID.TID 0000.0001) %MON exf_ustress_del2             =   3.1164601084408E-07
(PID.TID 0000.0001) %MON exf_vstress_max              =   4.1579636958891E-01
(PID.TID 0000.0001) %MON exf_vstress_min              =  -5.6229125720303E-01
(PID.TID 0000.0001) %MON exf_vstress_mean             =   1.0382142557795E-02
(PID.TID 0000.0001) %MON exf_vstress_sd               =   1.0090602167428E-01
(PID.TID 0000.0001) %MON exf_vstress_del2             =   2.5763755736935E-07
(PID.TID 0000.0001) %MON exf_hflux_max                =   7.0199912326915E+02
(PID.TID 0000.0001) %MON exf_hflux_min                =  -2.9701531673183E+02
(PID.TID 0000.0001) %MON exf_hflux_mean               =   2.0240050934006E+02
(PID.TID 0000.0001) %MON exf_hflux_sd                 =   1.2207138261059E+02
(PID.TID 0000.0001) %MON exf_hflux_del2               =   9.2999946033141E-02
(PID.TID 0000.0001) %MON exf_sflux_max                =   1.7234120308134E-07
(PID.TID 0000.0001) %MON exf_sflux_min                =  -1.3926735664940E-06
(PID.TID 0000.0001) %MON exf_sflux_mean               =   5.4704750222891E-09
(PID.TID 0000.0001) %MON exf_sflux_sd                 =   1.1498019142340E-07
(PID.TID 0000.0001) %MON exf_sflux_del2               =   4.6055067137292E-11
(PID.TID 0000.0001) %MON exf_uwind_max                =   1.9038714359038E+01
(PID.TID 0000.0001) %MON exf_uwind_min                =  -1.4969236750877E+01
(PID.TID 0000.0001) %MON exf_uwind_mean               =   2.5048341695484E+00
(PID.TID 0000.0001) %MON exf_uwind_sd                 =   6.6612098589052E+00
(PID.TID 0000.0001) %MON exf_uwind_del2               =   2.8409374272482E-03
(PID.TID 0000.0001) %MON exf_vwind_max                =   1.4410588721686E+01
(PID.TID 0000.0001) %MON exf_vwind_min                =  -1.2767018277065E+01
(PID.TID 0000.0001) %MON exf_vwind_mean               =   8.4582181726781E-01
(PID.TID 0000.0001) %MON exf_vwind_sd                 =   5.1905911828981E+00
(PID.TID 0000.0001) %MON exf_vwind_del2               =   2.0900297081629E-03
(PID.TID 0000.0001) %MON exf_wspeed_max               =   2.0330094361416E+01
(PID.TID 0000.0001) %MON exf_wspeed_min               =   3.0607396814068E-03
(PID.TID 0000.0001) %MON exf_wspeed_mean              =   7.7198063688668E+00
(PID.TID 0000.0001) %MON exf_wspeed_sd                =   4.3252921292164E+00
(PID.TID 0000.0001) %MON exf_wspeed_del2              =   3.5266239204818E-03
(PID.TID 0000.0001) %MON exf_atemp_max                =   2.9816683772317E+02
(PID.TID 0000.0001) %MON exf_atemp_min                =   2.7442375263243E+02
(PID.TID 0000.0001) %MON exf_atemp_mean               =   2.9068654076250E+02
(PID.TID 0000.0001) %MON exf_atemp_sd                 =   3.9434619743398E+00
(PID.TID 0000.0001) %MON exf_atemp_del2               =   6.8434714431344E-03
(PID.TID 0000.0001) %MON exf_aqh_max                  =   1.6787544028961E-02
(PID.TID 0000.0001) %MON exf_aqh_min                  =   2.7285894436605E-03
(PID.TID 0000.0001) %MON exf_aqh_mean                 =   9.4228317374731E-03
(PID.TID 0000.0001) %MON exf_aqh_sd                   =   2.8724955205138E-03
(PID.TID 0000.0001) %MON exf_aqh_del2                 =   3.7507960278560E-06
(PID.TID 0000.0001) %MON exf_lwflux_max               =   1.6100492253815E+02
(PID.TID 0000.0001) %MON exf_lwflux_min               =   8.0538957843365E+00
(PID.TID 0000.0001) %MON exf_lwflux_mean              =   6.2701316400715E+01
(PID.TID 0000.0001) %MON exf_lwflux_sd                =   2.3406257001293E+01
(PID.TID 0000.0001) %MON exf_lwflux_del2              =   2.5756496757798E-02
(PID.TID 0000.0001) %MON exf_evap_max                 =   1.9360698876082E-07
(PID.TID 0000.0001) %MON exf_evap_min                 =  -9.9505273924768E-08
(PID.TID 0000.0001) %MON exf_evap_mean                =   4.9604494577488E-08
(PID.TID 0000.0001) %MON exf_evap_sd                  =   3.8769655854114E-08
(PID.TID 0000.0001) %MON exf_evap_del2                =   2.4879591561184E-11
(PID.TID 0000.0001) %MON exf_precip_max               =   1.5707756941297E-06
(PID.TID 0000.0001) %MON exf_precip_min               =   0.0000000000000E+00
(PID.TID 0000.0001) %MON exf_precip_mean              =   4.2545540149979E-08
(PID.TID 0000.0001) %MON exf_precip_sd                =   1.1790919939009E-07
(PID.TID 0000.0001) %MON exf_precip_del2              =   5.0678369502666E-11
(PID.TID 0000.0001) %MON exf_swflux_max               =   0.0000000000000E+00
(PID.TID 0000.0001) %MON exf_swflux_min               =   0.0000000000000E+00
(PID.TID 0000.0001) %MON exf_swflux_mean              =   0.0000000000000E+00
(PID.TID 0000.0001) %MON exf_swflux_sd                =   0.0000000000000E+00
(PID.TID 0000.0001) %MON exf_swflux_del2              =   0.0000000000000E+00
(PID.TID 0000.0001) %MON exf_swdown_max               =   0.0000000000000E+00
(PID.TID 0000.0001) %MON exf_swdown_min               =   0.0000000000000E+00
(PID.TID 0000.0001) %MON exf_swdown_mean              =   0.0000000000000E+00
(PID.TID 0000.0001) %MON exf_swdown_sd                =   0.0000000000000E+00
(PID.TID 0000.0001) %MON exf_swdown_del2              =   0.0000000000000E+00
(PID.TID 0000.0001) %MON exf_lwdown_max               =   4.0522098466867E+02
(PID.TID 0000.0001) %MON exf_lwdown_min               =   2.2767370597179E+02
(PID.TID 0000.0001) %MON exf_lwdown_mean              =   3.4763002542741E+02
(PID.TID 0000.0001) %MON exf_lwdown_sd                =   2.8649240414861E+01
(PID.TID 0000.0001) %MON exf_lwdown_del2              =   1.3452484309508E-01
(PID.TID 0000.0001) %MON exf_apressure_max            =   1.0279296099314E+05
(PID.TID 0000.0001) %MON exf_apressure_min            =   9.9998241534199E+04
(PID.TID 0000.0001) %MON exf_apressure_mean           =   1.0216296531315E+05
(PID.TID 0000.0001) %MON exf_apressure_sd             =   4.9937521608735E+02
(PID.TID 0000.0001) %MON exf_apressure_del2           =   3.9518793508396E+01
(PID.TID 0000.0001) %MON exf_runoff_max               =   4.4374791284855E-08
(PID.TID 0000.0001) %MON exf_runoff_min               =   0.0000000000000E+00
(PID.TID 0000.0001) %MON exf_runoff_mean              =   1.5884794052194E-09
(PID.TID 0000.0001) %MON exf_runoff_sd                =   5.3901957917178E-09
(PID.TID 0000.0001) %MON exf_runoff_del2              =   2.2191214937507E-12
(PID.TID 0000.0001) // =======================================================
(PID.TID 0000.0001) // End MONITOR EXF statistics
(PID.TID 0000.0001) // =======================================================
 cg2d: Sum(rhs),rhsMax =   4.72463392263263E+02  3.99244967862643E-02
(PID.TID 0000.0001)      cg2d_init_res =   7.16357912492639E-01
(PID.TID 0000.0001)      cg2d_iters(min,last) =      -1     310
(PID.TID 0000.0001)      cg2d_last_res =   7.04909717307256E-12
(PID.TID 0000.0001) // =======================================================
(PID.TID 0000.0001) // Begin MONITOR dynamic field statistics
(PID.TID 0000.0001) // =======================================================
(PID.TID 0000.0001) %MON time_tsnumber                =                     6
(PID.TID 0000.0001) %MON time_secondsf                =   1.4400000000000E+03
(PID.TID 0000.0001) %MON dynstat_eta_max              =   1.3302343712181E+00
(PID.TID 0000.0001) %MON dynstat_eta_min              =  -5.4615931105832E-01
(PID.TID 0000.0001) %MON dynstat_eta_mean             =  -1.6067110344275E-02
(PID.TID 0000.0001) %MON dynstat_eta_sd               =   1.0843099203144E-01
(PID.TID 0000.0001) %MON dynstat_eta_del2             =   1.3096873501384E-06
(PID.TID 0000.0001) %MON dynstat_uvel_max             =   8.7970666400151E-01
(PID.TID 0000.0001) %MON dynstat_uvel_min             =  -4.8096886051817E-01
(PID.TID 0000.0001) %MON dynstat_uvel_mean            =  -8.8009087259086E-04
(PID.TID 0000.0001) %MON dynstat_uvel_sd              =   1.7185157710843E-02
(PID.TID 0000.0001) %MON dynstat_uvel_del2            =   1.5545337226844E-07
(PID.TID 0000.0001) %MON dynstat_vvel_max             =   8.4889791636597E-01
(PID.TID 0000.0001) %MON dynstat_vvel_min             =  -6.2988618981454E-01
(PID.TID 0000.0001) %MON dynstat_vvel_mean            =  -3.9215248760842E-03
(PID.TID 0000.0001) %MON dynstat_vvel_sd              =   1.6180388546503E-02
(PID.TID 0000.0001) %MON dynstat_vvel_del2            =   1.2647683420489E-07
(PID.TID 0000.0001) %MON dynstat_wvel_max             =   6.9539467857495E-03
(PID.TID 0000.0001) %MON dynstat_wvel_min             =  -5.4857154237843E-03
(PID.TID 0000.0001) %MON dynstat_wvel_mean            =  -6.6953271724652E-06
(PID.TID 0000.0001) %MON dynstat_wvel_sd              =   1.0703512400138E-04
(PID.TID 0000.0001) %MON dynstat_wvel_del2            =   1.1958343136526E-08
(PID.TID 0000.0001) %MON dynstat_theta_max            =   2.5557163610255E+01
(PID.TID 0000.0001) %MON dynstat_theta_min            =   1.4441539281705E+00
(PID.TID 0000.0001) %MON dynstat_theta_mean           =   5.5934041645400E+00
(PID.TID 0000.0001) %MON dynstat_theta_sd             =   4.7973306989920E+00
(PID.TID 0000.0001) %MON dynstat_theta_del2           =   1.5038097768419E-06
(PID.TID 0000.0001) %MON dynstat_salt_max             =   3.8096344707664E+01
(PID.TID 0000.0001) %MON dynstat_salt_min             =   3.0531432730274E+01
(PID.TID 0000.0001) %MON dynstat_salt_mean            =   3.5189818385918E+01
(PID.TID 0000.0001) %MON dynstat_salt_sd              =   4.6941460429633E-01
(PID.TID 0000.0001) %MON dynstat_salt_del2            =   2.7799807058142E-07
(PID.TID 0000.0001) %MON forcing_qnet_max             =   7.0987958745411E+02
(PID.TID 0000.0001) %MON forcing_qnet_min             =  -3.0205426905187E+02
(PID.TID 0000.0001) %MON forcing_qnet_mean            =   2.0338668169831E+02
(PID.TID 0000.0001) %MON forcing_qnet_sd              =   1.2369624190204E+02
(PID.TID 0000.0001) %MON forcing_qnet_del2            =   9.3187475039637E-04
(PID.TID 0000.0001) %MON forcing_qsw_max              =   0.0000000000000E+00
(PID.TID 0000.0001) %MON forcing_qsw_min              =   0.0000000000000E+00
(PID.TID 0000.0001) %MON forcing_qsw_mean             =   0.0000000000000E+00
(PID.TID 0000.0001) %MON forcing_qsw_sd               =   0.0000000000000E+00
(PID.TID 0000.0001) %MON forcing_qsw_del2             =   0.0000000000000E+00
(PID.TID 0000.0001) %MON forcing_empmr_max            =   1.7234120308134E-04
(PID.TID 0000.0001) %MON forcing_empmr_min            =  -1.3926735664940E-03
(PID.TID 0000.0001) %MON forcing_empmr_mean           =   5.4704750222891E-06
(PID.TID 0000.0001) %MON forcing_empmr_sd             =   1.1498019142340E-04
(PID.TID 0000.0001) %MON forcing_empmr_del2           =   2.9364970133769E-09
(PID.TID 0000.0001) %MON forcing_fu_max               =   7.8250522648412E-01
(PID.TID 0000.0001) %MON forcing_fu_min               =  -4.0662182470723E-01
(PID.TID 0000.0001) %MON forcing_fu_mean              =   6.3202928808922E-02
(PID.TID 0000.0001) %MON forcing_fu_sd                =   1.5359843375472E-01
(PID.TID 0000.0001) %MON forcing_fu_del2              =   2.9292347511114E-07
(PID.TID 0000.0001) %MON forcing_fv_max               =   4.1540204499867E-01
(PID.TID 0000.0001) %MON forcing_fv_min               =  -5.6549703591632E-01
(PID.TID 0000.0001) %MON forcing_fv_mean              =   1.0363705336558E-02
(PID.TID 0000.0001) %MON forcing_fv_sd                =   1.0103477730771E-01
(PID.TID 0000.0001) %MON forcing_fv_del2              =   2.3259289303468E-07
(PID.TID 0000.0001) %MON trAdv_CFL_u_max              =   6.2728288195060E-02
(PID.TID 0000.0001) %MON trAdv_CFL_v_max              =   5.3798375269779E-02
(PID.TID 0000.0001) %MON trAdv_CFL_w_max              =   2.3144844954309E-01
(PID.TID 0000.0001) %MON advcfl_uvel_max              =   6.2728287563682E-02
(PID.TID 0000.0001) %MON advcfl_vvel_max              =   5.3812639739216E-02
(PID.TID 0000.0001) %MON advcfl_wvel_max              =   2.3144844954309E-01
(PID.TID 0000.0001) %MON advcfl_W_hf_max              =   2.3144844954309E-01
(PID.TID 0000.0001) %MON pe_b_mean                    =  -3.8134405199245E-04
(PID.TID 0000.0001) %MON ke_max                       =   4.3502700369474E-01
(PID.TID 0000.0001) %MON ke_mean                      =   2.8439141860634E-04
(PID.TID 0000.0001) %MON ke_vol                       =   4.5818637279721E+16
(PID.TID 0000.0001) %MON vort_r_min                   =  -2.9246050277313E-04
(PID.TID 0000.0001) %MON vort_r_max                   =   3.9144537197548E-04
(PID.TID 0000.0001) %MON vort_a_mean                  =   8.2147590293792E-05
(PID.TID 0000.0001) %MON vort_a_sd                    =   9.7055525712939E-06
(PID.TID 0000.0001) %MON vort_p_mean                  =   8.4848810524551E-05
(PID.TID 0000.0001) %MON vort_p_sd                    =   3.5000575939080E-05
(PID.TID 0000.0001) %MON surfExpan_theta_mean         =  -1.3777914920997E-04
(PID.TID 0000.0001) %MON surfExpan_salt_mean          =  -3.0696597303066E-04
(PID.TID 0000.0001) // =======================================================
(PID.TID 0000.0001) // End MONITOR dynamic field statistics
(PID.TID 0000.0001) // =======================================================
(PID.TID 0000.0001) // =======================================================
(PID.TID 0000.0001) // Begin OBCS MONITOR field statistics
(PID.TID 0000.0001) // =======================================================
(PID.TID 0000.0001) %MON obc_N_vVel_max               =   7.4593022427924E-02
(PID.TID 0000.0001) %MON obc_N_vVel_min               =  -6.0383213097301E-01
(PID.TID 0000.0001) %MON obc_N_vVel_mean              =  -6.4856799981993E-03
(PID.TID 0000.0001) %MON obc_N_vVel_sd                =   1.6691557841601E-02
(PID.TID 0000.0001) %MON obc_N_vVel_Int               =  -9.2843056972081E+07
(PID.TID 0000.0001) %MON obc_S_vVel_max               =   6.4267786968248E-01
(PID.TID 0000.0001) %MON obc_S_vVel_min               =  -1.0733703488579E-01
(PID.TID 0000.0001) %MON obc_S_vVel_mean              =  -6.2345372098892E-03
(PID.TID 0000.0001) %MON obc_S_vVel_sd                =   2.0076772151632E-02
(PID.TID 0000.0001) %MON obc_S_vVel_Int               =  -1.8979739078776E+08
(PID.TID 0000.0001) %MON obc_N_theta_max              =   1.6146044889237E+01
(PID.TID 0000.0001) %MON obc_N_theta_min              =   1.6877633799436E+00
(PID.TID 0000.0001) %MON obc_N_theta_mean             =   5.2225951816558E+00
(PID.TID 0000.0001) %MON obc_N_theta_sd               =   3.6304003815030E+00
(PID.TID 0000.0001) %MON obc_S_theta_max              =   2.5392487726597E+01
(PID.TID 0000.0001) %MON obc_S_theta_min              =   1.5161809315998E+00
(PID.TID 0000.0001) %MON obc_S_theta_mean             =   5.4082473867227E+00
(PID.TID 0000.0001) %MON obc_S_theta_sd               =   5.1183300636564E+00
(PID.TID 0000.0001) %MON obc_N_salt_max               =   3.6395884520252E+01
(PID.TID 0000.0001) %MON obc_N_salt_min               =   3.0617569376784E+01
(PID.TID 0000.0001) %MON obc_N_salt_mean              =   3.5063772156360E+01
(PID.TID 0000.0001) %MON obc_N_salt_sd                =   3.9120012368812E-01
(PID.TID 0000.0001) %MON obc_S_salt_max               =   3.7332467650845E+01
(PID.TID 0000.0001) %MON obc_S_salt_min               =   3.4852181418312E+01
(PID.TID 0000.0001) %MON obc_S_salt_mean              =   3.5186250942795E+01
(PID.TID 0000.0001) %MON obc_S_salt_sd                =   5.1365375533678E-01
(PID.TID 0000.0001) // =======================================================
(PID.TID 0000.0001) // End OBCS MONITOR field statistics
(PID.TID 0000.0001) // =======================================================
(PID.TID 0000.0001) // =======================================================
(PID.TID 0000.0001) // Begin MONITOR EXF statistics
(PID.TID 0000.0001) // =======================================================
(PID.TID 0000.0001) %MON exf_tsnumber                 =                     6
(PID.TID 0000.0001) %MON exf_time_sec                 =   1.4400000000000E+03
(PID.TID 0000.0001) %MON exf_ustress_max              =   7.7865128958471E-01
(PID.TID 0000.0001) %MON exf_ustress_min              =  -4.0397392324410E-01
(PID.TID 0000.0001) %MON exf_ustress_mean             =   6.3181589614622E-02
(PID.TID 0000.0001) %MON exf_ustress_sd               =   1.5336209369584E-01
(PID.TID 0000.0001) %MON exf_ustress_del2             =   3.0666909096579E-07
(PID.TID 0000.0001) %MON exf_vstress_max              =   4.1378080015585E-01
(PID.TID 0000.0001) %MON exf_vstress_min              =  -5.6138120409695E-01
(PID.TID 0000.0001) %MON exf_vstress_mean             =   1.0406963342737E-02
(PID.TID 0000.0001) %MON exf_vstress_sd               =   1.0075948844748E-01
(PID.TID 0000.0001) %MON exf_vstress_del2             =   2.5310916854331E-07
(PID.TID 0000.0001) %MON exf_hflux_max                =   6.9529855971232E+02
(PID.TID 0000.0001) %MON exf_hflux_min                =  -3.0070278686567E+02
(PID.TID 0000.0001) %MON exf_hflux_mean               =   2.0161838197414E+02
(PID.TID 0000.0001) %MON exf_hflux_sd                 =   1.2163575216570E+02
(PID.TID 0000.0001) %MON exf_hflux_del2               =   9.2642878484571E-02
(PID.TID 0000.0001) %MON exf_sflux_max                =   1.7104548093416E-07
(PID.TID 0000.0001) %MON exf_sflux_min                =  -1.5177112534222E-06
(PID.TID 0000.0001) %MON exf_sflux_mean               =   6.3835635593793E-09
(PID.TID 0000.0001) %MON exf_sflux_sd                 =   1.2223432666948E-07
(PID.TID 0000.0001) %MON exf_sflux_del2               =   4.9064060172860E-11
(PID.TID 0000.0001) %MON exf_uwind_max                =   1.9031265358131E+01
(PID.TID 0000.0001) %MON exf_uwind_min                =  -1.4937672743454E+01
(PID.TID 0000.0001) %MON exf_uwind_mean               =   2.5058675063468E+00
(PID.TID 0000.0001) %MON exf_uwind_sd                 =   6.6587767764755E+00
(PID.TID 0000.0001) %MON exf_uwind_del2               =   2.8401254707761E-03
(PID.TID 0000.0001) %MON exf_vwind_max                =   1.4385083256537E+01
(PID.TID 0000.0001) %MON exf_vwind_min                =  -1.2762034438096E+01
(PID.TID 0000.0001) %MON exf_vwind_mean               =   8.4750245346234E-01
(PID.TID 0000.0001) %MON exf_vwind_sd                 =   5.1850800142626E+00
(PID.TID 0000.0001) %MON exf_vwind_del2               =   2.0882575816552E-03
(PID.TID 0000.0001) %MON exf_wspeed_max               =   2.0291947879959E+01
(PID.TID 0000.0001) %MON exf_wspeed_min               =   9.6830012452985E-03
(PID.TID 0000.0001) %MON exf_wspeed_mean              =   7.7151517992744E+00
(PID.TID 0000.0001) %MON exf_wspeed_sd                =   4.3241678962983E+00
(PID.TID 0000.0001) %MON exf_wspeed_del2              =   3.5249279367775E-03
(PID.TID 0000.0001) %MON exf_atemp_max                =   2.9816464043476E+02
(PID.TID 0000.0001) %MON exf_atemp_min                =   2.7439815142379E+02
(PID.TID 0000.0001) %MON exf_atemp_mean               =   2.9068341955631E+02
(PID.TID 0000.0001) %MON exf_atemp_sd                 =   3.9434957823437E+00
(PID.TID 0000.0001) %MON exf_atemp_del2               =   6.8422467283737E-03
(PID.TID 0000.0001) %MON exf_aqh_max                  =   1.6780557728087E-02
(PID.TID 0000.0001) %MON exf_aqh_min                  =   2.7262947458965E-03
(PID.TID 0000.0001) %MON exf_aqh_mean                 =   9.4216435846591E-03
(PID.TID 0000.0001) %MON exf_aqh_sd                   =   2.8726801694255E-03
(PID.TID 0000.0001) %MON exf_aqh_del2                 =   3.7502842763471E-06
(PID.TID 0000.0001) %MON exf_lwflux_max               =   1.6261818732280E+02
(PID.TID 0000.0001) %MON exf_lwflux_min               =   2.0728734312912E-01
(PID.TID 0000.0001) %MON exf_lwflux_mean              =   6.1927332531056E+01
(PID.TID 0000.0001) %MON exf_lwflux_sd                =   2.4691065840582E+01
(PID.TID 0000.0001) %MON exf_lwflux_del2              =   2.5655302124150E-02
(PID.TID 0000.0001) %MON exf_evap_max                 =   1.9274354649902E-07
(PID.TID 0000.0001) %MON exf_evap_min                 =  -9.9788596704156E-08
(PID.TID 0000.0001) %MON exf_evap_mean                =   4.9593717285730E-08
(PID.TID 0000.0001) %MON exf_evap_sd                  =   3.8715981003219E-08
(PID.TID 0000.0001) %MON exf_evap_del2                =   2.4864961669488E-11
(PID.TID 0000.0001) %MON exf_precip_max               =   1.6964377496601E-06
(PID.TID 0000.0001) %MON exf_precip_min               =   0.0000000000000E+00
(PID.TID 0000.0001) %MON exf_precip_mean              =   4.1621674321131E-08
(PID.TID 0000.0001) %MON exf_precip_sd                =   1.2611994878121E-07
(PID.TID 0000.0001) %MON exf_precip_del2              =   5.3753981502031E-11
(PID.TID 0000.0001) %MON exf_swflux_max               =   0.0000000000000E+00
(PID.TID 0000.0001) %MON exf_swflux_min               =   0.0000000000000E+00
(PID.TID 0000.0001) %MON exf_swflux_mean              =   0.0000000000000E+00
(PID.TID 0000.0001) %MON exf_swflux_sd                =   0.0000000000000E+00
(PID.TID 0000.0001) %MON exf_swflux_del2              =   0.0000000000000E+00
(PID.TID 0000.0001) %MON exf_swdown_max               =   0.0000000000000E+00
(PID.TID 0000.0001) %MON exf_swdown_min               =   0.0000000000000E+00
(PID.TID 0000.0001) %MON exf_swdown_mean              =   0.0000000000000E+00
(PID.TID 0000.0001) %MON exf_swdown_sd                =   0.0000000000000E+00
(PID.TID 0000.0001) %MON exf_swdown_del2              =   0.0000000000000E+00
(PID.TID 0000.0001) %MON exf_lwdown_max               =   4.0922404091225E+02
(PID.TID 0000.0001) %MON exf_lwdown_min               =   2.2687892042835E+02
(PID.TID 0000.0001) %MON exf_lwdown_mean              =   3.4842407940767E+02
(PID.TID 0000.0001) %MON exf_lwdown_sd                =   2.9896536470828E+01
(PID.TID 0000.0001) %MON exf_lwdown_del2              =   1.3487661249190E-01
(PID.TID 0000.0001) %MON exf_apressure_max            =   1.0279447202553E+05
(PID.TID 0000.0001) %MON exf_apressure_min            =   1.0000228416919E+05
(PID.TID 0000.0001) %MON exf_apressure_mean           =   1.0216374261970E+05
(PID.TID 0000.0001) %MON exf_apressure_sd             =   4.9917253457380E+02
(PID.TID 0000.0001) %MON exf_apressure_del2           =   3.9519100755332E+01
(PID.TID 0000.0001) %MON exf_runoff_max               =   4.4374791284855E-08
(PID.TID 0000.0001) %MON exf_runoff_min               =   0.0000000000000E+00
(PID.TID 0000.0001) %MON exf_runoff_mean              =   1.5884794052194E-09
(PID.TID 0000.0001) %MON exf_runoff_sd                =   5.3901957917178E-09
(PID.TID 0000.0001) %MON exf_runoff_del2              =   2.2191214937507E-12
(PID.TID 0000.0001) // =======================================================
(PID.TID 0000.0001) // End MONITOR EXF statistics
(PID.TID 0000.0001) // =======================================================
 cg2d: Sum(rhs),rhsMax =   5.25536333838589E+02  3.93391566540828E-02
(PID.TID 0000.0001)      cg2d_init_res =   6.79482698887752E-01
(PID.TID 0000.0001)      cg2d_iters(min,last) =      -1     310
(PID.TID 0000.0001)      cg2d_last_res =   6.80268621853569E-12
(PID.TID 0000.0001) // =======================================================
(PID.TID 0000.0001) // Begin MONITOR dynamic field statistics
(PID.TID 0000.0001) // =======================================================
(PID.TID 0000.0001) %MON time_tsnumber                =                     7
(PID.TID 0000.0001) %MON time_secondsf                =   1.6800000000000E+03
(PID.TID 0000.0001) %MON dynstat_eta_max              =   1.2378207149704E+00
(PID.TID 0000.0001) %MON dynstat_eta_min              =  -5.6881759105765E-01
(PID.TID 0000.0001) %MON dynstat_eta_mean             =  -1.7871967233824E-02
(PID.TID 0000.0001) %MON dynstat_eta_sd               =   1.1970278666746E-01
(PID.TID 0000.0001) %MON dynstat_eta_del2             =   1.2994304099906E-06
(PID.TID 0000.0001) %MON dynstat_uvel_max             =   7.9908091791612E-01
(PID.TID 0000.0001) %MON dynstat_uvel_min             =  -5.0656487830080E-01
(PID.TID 0000.0001) %MON dynstat_uvel_mean            =  -1.1043989317319E-03
(PID.TID 0000.0001) %MON dynstat_uvel_sd              =   1.7206871089480E-02
(PID.TID 0000.0001) %MON dynstat_uvel_del2            =   1.6422834063788E-07
(PID.TID 0000.0001) %MON dynstat_vvel_max             =   8.4566166561825E-01
(PID.TID 0000.0001) %MON dynstat_vvel_min             =  -6.3302082582706E-01
(PID.TID 0000.0001) %MON dynstat_vvel_mean            =  -4.4156022634508E-03
(PID.TID 0000.0001) %MON dynstat_vvel_sd              =   1.6230426818876E-02
(PID.TID 0000.0001) %MON dynstat_vvel_del2            =   1.3340616334333E-07
(PID.TID 0000.0001) %MON dynstat_wvel_max             =   6.8115470450794E-03
(PID.TID 0000.0001) %MON dynstat_wvel_min             =  -5.2483004615717E-03
(PID.TID 0000.0001) %MON dynstat_wvel_mean            =  -6.0555552826175E-06
(PID.TID 0000.0001) %MON dynstat_wvel_sd              =   1.1071584055694E-04
(PID.TID 0000.0001) %MON dynstat_wvel_del2            =   1.2167541439982E-08
(PID.TID 0000.0001) %MON dynstat_theta_max            =   2.5557302635797E+01
(PID.TID 0000.0001) %MON dynstat_theta_min            =   1.4441539320466E+00
(PID.TID 0000.0001) %MON dynstat_theta_mean           =   5.5934057971075E+00
(PID.TID 0000.0001) %MON dynstat_theta_sd             =   4.7973274292761E+00
(PID.TID 0000.0001) %MON dynstat_theta_del2           =   1.5084022434506E-06
(PID.TID 0000.0001) %MON dynstat_salt_max             =   3.8096260385984E+01
(PID.TID 0000.0001) %MON dynstat_salt_min             =   3.0532049899135E+01
(PID.TID 0000.0001) %MON dynstat_salt_mean            =   3.5189818287386E+01
(PID.TID 0000.0001) %MON dynstat_salt_sd              =   4.6941715489903E-01
(PID.TID 0000.0001) %MON dynstat_salt_del2            =   2.8103578126232E-07
(PID.TID 0000.0001) %MON forcing_qnet_max             =   7.0236634861321E+02
(PID.TID 0000.0001) %MON forcing_qnet_min             =  -3.0565112872050E+02
(PID.TID 0000.0001) %MON forcing_qnet_mean            =   2.0268733328364E+02
(PID.TID 0000.0001) %MON forcing_qnet_sd              =   1.2310688644231E+02
(PID.TID 0000.0001) %MON forcing_qnet_del2            =   9.4535970990810E-04
(PID.TID 0000.0001) %MON forcing_qsw_max              =   0.0000000000000E+00
(PID.TID 0000.0001) %MON forcing_qsw_min              =   0.0000000000000E+00
(PID.TID 0000.0001) %MON forcing_qsw_mean             =   0.0000000000000E+00
(PID.TID 0000.0001) %MON forcing_qsw_sd               =   0.0000000000000E+00
(PID.TID 0000.0001) %MON forcing_qsw_del2             =   0.0000000000000E+00
(PID.TID 0000.0001) %MON forcing_empmr_max            =   1.7104548093416E-04
(PID.TID 0000.0001) %MON forcing_empmr_min            =  -1.5177112534222E-03
(PID.TID 0000.0001) %MON forcing_empmr_mean           =   6.3835635593793E-06
(PID.TID 0000.0001) %MON forcing_empmr_sd             =   1.2223432666948E-04
(PID.TID 0000.0001) %MON forcing_empmr_del2           =   3.1275785933471E-09
(PID.TID 0000.0001) %MON forcing_fu_max               =   7.7862048775411E-01
(PID.TID 0000.0001) %MON forcing_fu_min               =  -4.0393137142468E-01
(PID.TID 0000.0001) %MON forcing_fu_mean              =   6.3240169803412E-02
(PID.TID 0000.0001) %MON forcing_fu_sd                =   1.5342026847155E-01
(PID.TID 0000.0001) %MON forcing_fu_del2              =   2.8774678789167E-07
(PID.TID 0000.0001) %MON forcing_fv_max               =   4.1325859556145E-01
(PID.TID 0000.0001) %MON forcing_fv_min               =  -5.6479449869294E-01
(PID.TID 0000.0001) %MON forcing_fv_mean              =   1.0388783791943E-02
(PID.TID 0000.0001) %MON forcing_fv_sd                =   1.0088862000818E-01
(PID.TID 0000.0001) %MON forcing_fv_del2              =   2.2793336884949E-07
(PID.TID 0000.0001) %MON trAdv_CFL_u_max              =   5.6979195635750E-02
(PID.TID 0000.0001) %MON trAdv_CFL_v_max              =   5.3593279899845E-02
(PID.TID 0000.0001) %MON trAdv_CFL_w_max              =   2.5191842215544E-01
(PID.TID 0000.0001) %MON advcfl_uvel_max              =   5.6979195062239E-02
(PID.TID 0000.0001) %MON advcfl_vvel_max              =   5.3607489988893E-02
(PID.TID 0000.0001) %MON advcfl_wvel_max              =   2.5191842215544E-01
(PID.TID 0000.0001) %MON advcfl_W_hf_max              =   2.5191842215544E-01
(PID.TID 0000.0001) %MON pe_b_mean                    =  -4.2268417582509E-04
(PID.TID 0000.0001) %MON ke_max                       =   4.3746266087378E-01
(PID.TID 0000.0001) %MON ke_mean                      =   2.8783979848781E-04
(PID.TID 0000.0001) %MON ke_vol                       =   4.5818637279721E+16
(PID.TID 0000.0001) %MON vort_r_min                   =  -3.0181736662060E-04
(PID.TID 0000.0001) %MON vort_r_max                   =   3.9047665601399E-04
(PID.TID 0000.0001) %MON vort_a_mean                  =   8.2147590491182E-05
(PID.TID 0000.0001) %MON vort_a_sd                    =   9.7061326795989E-06
(PID.TID 0000.0001) %MON vort_p_mean                  =   8.4848810728431E-05
(PID.TID 0000.0001) %MON vort_p_sd                    =   3.5000850562603E-05
(PID.TID 0000.0001) %MON surfExpan_theta_mean         =  -1.0621369454441E-04
(PID.TID 0000.0001) %MON surfExpan_salt_mean          =  -2.6529586803325E-04
(PID.TID 0000.0001) // =======================================================
(PID.TID 0000.0001) // End MONITOR dynamic field statistics
(PID.TID 0000.0001) // =======================================================
(PID.TID 0000.0001) // =======================================================
(PID.TID 0000.0001) // Begin OBCS MONITOR field statistics
(PID.TID 0000.0001) // =======================================================
(PID.TID 0000.0001) %MON obc_N_vVel_max               =   7.4499434936691E-02
(PID.TID 0000.0001) %MON obc_N_vVel_min               =  -6.0435057849322E-01
(PID.TID 0000.0001) %MON obc_N_vVel_mean              =  -6.5967629069141E-03
(PID.TID 0000.0001) %MON obc_N_vVel_sd                =   1.6739775762129E-02
(PID.TID 0000.0001) %MON obc_N_vVel_Int               =  -9.4433218192692E+07
(PID.TID 0000.0001) %MON obc_S_vVel_max               =   6.4354097980197E-01
(PID.TID 0000.0001) %MON obc_S_vVel_min               =  -1.0721759090469E-01
(PID.TID 0000.0001) %MON obc_S_vVel_mean              =  -5.8937522583932E-03
(PID.TID 0000.0001) %MON obc_S_vVel_sd                =   2.0059177984516E-02
(PID.TID 0000.0001) %MON obc_S_vVel_Int               =  -1.7942290869932E+08
(PID.TID 0000.0001) %MON obc_N_theta_max              =   1.6146050480645E+01
(PID.TID 0000.0001) %MON obc_N_theta_min              =   1.6876947057429E+00
(PID.TID 0000.0001) %MON obc_N_theta_mean             =   5.2225932553671E+00
(PID.TID 0000.0001) %MON obc_N_theta_sd               =   3.6303965966092E+00
(PID.TID 0000.0001) %MON obc_S_theta_max              =   2.5392475449416E+01
(PID.TID 0000.0001) %MON obc_S_theta_min              =   1.5161809098848E+00
(PID.TID 0000.0001) %MON obc_S_theta_mean             =   5.4082464655748E+00
(PID.TID 0000.0001) %MON obc_S_theta_sd               =   5.1183268682720E+00
(PID.TID 0000.0001) %MON obc_N_salt_max               =   3.6395885863708E+01
(PID.TID 0000.0001) %MON obc_N_salt_min               =   3.0617585940386E+01
(PID.TID 0000.0001) %MON obc_N_salt_mean              =   3.5063772226713E+01
(PID.TID 0000.0001) %MON obc_N_salt_sd                =   3.9119975170640E-01
(PID.TID 0000.0001) %MON obc_S_salt_max               =   3.7332458271720E+01
(PID.TID 0000.0001) %MON obc_S_salt_min               =   3.4852181416572E+01
(PID.TID 0000.0001) %MON obc_S_salt_mean              =   3.5186250983291E+01
(PID.TID 0000.0001) %MON obc_S_salt_sd                =   5.1365384143950E-01
(PID.TID 0000.0001) // =======================================================
(PID.TID 0000.0001) // End OBCS MONITOR field statistics
(PID.TID 0000.0001) // =======================================================
(PID.TID 0000.0001) // =======================================================
(PID.TID 0000.0001) // Begin MONITOR EXF statistics
(PID.TID 0000.0001) // =======================================================
(PID.TID 0000.0001) %MON exf_tsnumber                 =                     7
(PID.TID 0000.0001) %MON exf_time_sec                 =   1.6800000000000E+03
(PID.TID 0000.0001) %MON exf_ustress_max              =   7.7951091951660E-01
(PID.TID 0000.0001) %MON exf_ustress_min              =  -4.0130819153646E-01
(PID.TID 0000.0001) %MON exf_ustress_mean             =   6.3245649821541E-02
(PID.TID 0000.0001) %MON exf_ustress_sd               =   1.5326362188266E-01
(PID.TID 0000.0001) %MON exf_ustress_del2             =   3.0563721563211E-07
(PID.TID 0000.0001) %MON exf_vstress_max              =   4.1260988649385E-01
(PID.TID 0000.0001) %MON exf_vstress_min              =  -5.6092054944234E-01
(PID.TID 0000.0001) %MON exf_vstress_mean             =   1.0442784185146E-02
(PID.TID 0000.0001) %MON exf_vstress_sd               =   1.0068900394360E-01
(PID.TID 0000.0001) %MON exf_vstress_del2             =   2.5232343187307E-07
(PID.TID 0000.0001) %MON exf_hflux_max                =   6.8912659769386E+02
(PID.TID 0000.0001) %MON exf_hflux_min                =  -3.0450578809921E+02
(PID.TID 0000.0001) %MON exf_hflux_mean               =   2.0085818097096E+02
(PID.TID 0000.0001) %MON exf_hflux_sd                 =   1.2127879506224E+02
(PID.TID 0000.0001) %MON exf_hflux_del2               =   9.2308992490297E-02
(PID.TID 0000.0001) %MON exf_sflux_max                =   1.6976205724111E-07
(PID.TID 0000.0001) %MON exf_sflux_min                =  -1.6427561679215E-06
(PID.TID 0000.0001) %MON exf_sflux_mean               =   7.3037702067411E-09
(PID.TID 0000.0001) %MON exf_sflux_sd                 =   1.3030749626915E-07
(PID.TID 0000.0001) %MON exf_sflux_del2               =   5.2388696590265E-11
(PID.TID 0000.0001) %MON exf_uwind_max                =   1.9081634799396E+01
(PID.TID 0000.0001) %MON exf_uwind_min                =  -1.4907784716211E+01
(PID.TID 0000.0001) %MON exf_uwind_mean               =   2.5069894188500E+00
(PID.TID 0000.0001) %MON exf_uwind_sd                 =   6.6571580606828E+00
(PID.TID 0000.0001) %MON exf_uwind_del2               =   2.8396367346418E-03
(PID.TID 0000.0001) %MON exf_vwind_max                =   1.4378922039816E+01
(PID.TID 0000.0001) %MON exf_vwind_min                =  -1.2760718468976E+01
(PID.TID 0000.0001) %MON exf_vwind_mean               =   8.4919482111015E-01
(PID.TID 0000.0001) %MON exf_vwind_sd                 =   5.1811400149437E+00
(PID.TID 0000.0001) %MON exf_vwind_del2               =   2.0871107304322E-03
(PID.TID 0000.0001) %MON exf_wspeed_max               =   2.0257483522088E+01
(PID.TID 0000.0001) %MON exf_wspeed_min               =   1.5870895413287E-02
(PID.TID 0000.0001) %MON exf_wspeed_mean              =   7.7117081255369E+00
(PID.TID 0000.0001) %MON exf_wspeed_sd                =   4.3240780377232E+00
(PID.TID 0000.0001) %MON exf_wspeed_del2              =   3.5238594218787E-03
(PID.TID 0000.0001) %MON exf_atemp_max                =   2.9816244314634E+02
(PID.TID 0000.0001) %MON exf_atemp_min                =   2.7437255021515E+02
(PID.TID 0000.0001) %MON exf_atemp_mean               =   2.9068029835012E+02
(PID.TID 0000.0001) %MON exf_atemp_sd                 =   3.9436720807438E+00
(PID.TID 0000.0001) %MON exf_atemp_del2               =   6.8410357427056E-03
(PID.TID 0000.0001) %MON exf_aqh_max                  =   1.6773571427214E-02
(PID.TID 0000.0001) %MON exf_aqh_min                  =   2.7240000481325E-03
(PID.TID 0000.0001) %MON exf_aqh_mean                 =   9.4204554318450E-03
(PID.TID 0000.0001) %MON exf_aqh_sd                   =   2.8730375899859E-03
(PID.TID 0000.0001) %MON exf_aqh_del2                 =   3.7497943090998E-06
(PID.TID 0000.0001) %MON exf_lwflux_max               =   1.6423121061867E+02
(PID.TID 0000.0001) %MON exf_lwflux_min               =  -7.6995213454019E+00
(PID.TID 0000.0001) %MON exf_lwflux_mean              =   6.1153757275312E+01
(PID.TID 0000.0001) %MON exf_lwflux_sd                =   2.6147707433504E+01
(PID.TID 0000.0001) %MON exf_lwflux_del2              =   2.5594261439793E-02
(PID.TID 0000.0001) %MON exf_evap_max                 =   1.9190366952044E-07
(PID.TID 0000.0001) %MON exf_evap_min                 =  -1.0014606793354E-07
(PID.TID 0000.0001) %MON exf_evap_mean                =   4.9590058104243E-08
(PID.TID 0000.0001) %MON exf_evap_sd                  =   3.8674664348560E-08
(PID.TID 0000.0001) %MON exf_evap_del2                =   2.4855705847793E-11
(PID.TID 0000.0001) %MON exf_precip_max               =   1.8220998051905E-06
(PID.TID 0000.0001) %MON exf_precip_min               =   0.0000000000000E+00
(PID.TID 0000.0001) %MON exf_precip_mean              =   4.0697808492283E-08
(PID.TID 0000.0001) %MON exf_precip_sd                =   1.3500754762119E-07
(PID.TID 0000.0001) %MON exf_precip_del2              =   5.7110364197837E-11
(PID.TID 0000.0001) %MON exf_swflux_max               =   0.0000000000000E+00
(PID.TID 0000.0001) %MON exf_swflux_min               =   0.0000000000000E+00
(PID.TID 0000.0001) %MON exf_swflux_mean              =   0.0000000000000E+00
(PID.TID 0000.0001) %MON exf_swflux_sd                =   0.0000000000000E+00
(PID.TID 0000.0001) %MON exf_swflux_del2              =   0.0000000000000E+00
(PID.TID 0000.0001) %MON exf_swdown_max               =   0.0000000000000E+00
(PID.TID 0000.0001) %MON exf_swdown_min               =   0.0000000000000E+00
(PID.TID 0000.0001) %MON exf_swdown_mean              =   0.0000000000000E+00
(PID.TID 0000.0001) %MON exf_swdown_sd                =   0.0000000000000E+00
(PID.TID 0000.0001) %MON exf_swdown_del2              =   0.0000000000000E+00
(PID.TID 0000.0001) %MON exf_lwdown_max               =   4.1505412793497E+02
(PID.TID 0000.0001) %MON exf_lwdown_min               =   2.2448607473773E+02
(PID.TID 0000.0001) %MON exf_lwdown_mean              =   3.4921813338793E+02
(PID.TID 0000.0001) %MON exf_lwdown_sd                =   3.1302832687846E+01
(PID.TID 0000.0001) %MON exf_lwdown_del2              =   1.3523559000391E-01
(PID.TID 0000.0001) %MON exf_apressure_max            =   1.0279678232205E+05
(PID.TID 0000.0001) %MON exf_apressure_min            =   1.0000622433023E+05
(PID.TID 0000.0001) %MON exf_apressure_mean           =   1.0216451992626E+05
(PID.TID 0000.0001) %MON exf_apressure_sd             =   4.9900957732261E+02
(PID.TID 0000.0001) %MON exf_apressure_del2           =   3.9519408083682E+01
(PID.TID 0000.0001) %MON exf_runoff_max               =   4.4374791284855E-08
(PID.TID 0000.0001) %MON exf_runoff_min               =   0.0000000000000E+00
(PID.TID 0000.0001) %MON exf_runoff_mean              =   1.5884794052194E-09
(PID.TID 0000.0001) %MON exf_runoff_sd                =   5.3901957917178E-09
(PID.TID 0000.0001) %MON exf_runoff_del2              =   2.2191214937507E-12
(PID.TID 0000.0001) // =======================================================
(PID.TID 0000.0001) // End MONITOR EXF statistics
(PID.TID 0000.0001) // =======================================================
 cg2d: Sum(rhs),rhsMax =   5.71072547647459E+02  3.79722867860806E-02
(PID.TID 0000.0001)      cg2d_init_res =   6.48665510267488E-01
(PID.TID 0000.0001)      cg2d_iters(min,last) =      -1     309
(PID.TID 0000.0001)      cg2d_last_res =   7.00558437811791E-12
(PID.TID 0000.0001) // =======================================================
(PID.TID 0000.0001) // Begin MONITOR dynamic field statistics
(PID.TID 0000.0001) // =======================================================
(PID.TID 0000.0001) %MON time_tsnumber                =                     8
(PID.TID 0000.0001) %MON time_secondsf                =   1.9200000000000E+03
(PID.TID 0000.0001) %MON dynstat_eta_max              =   1.1432721818334E+00
(PID.TID 0000.0001) %MON dynstat_eta_min              =  -5.8469150341302E-01
(PID.TID 0000.0001) %MON dynstat_eta_mean             =  -1.9420521860295E-02
(PID.TID 0000.0001) %MON dynstat_eta_sd               =   1.3010411879480E-01
(PID.TID 0000.0001) %MON dynstat_eta_del2             =   1.2964243355411E-06
(PID.TID 0000.0001) %MON dynstat_uvel_max             =   7.3990929348532E-01
(PID.TID 0000.0001) %MON dynstat_uvel_min             =  -4.8644979794627E-01
(PID.TID 0000.0001) %MON dynstat_uvel_mean            =  -1.3415989624369E-03
(PID.TID 0000.0001) %MON dynstat_uvel_sd              =   1.7216606712299E-02
(PID.TID 0000.0001) %MON dynstat_uvel_del2            =   1.7269597233998E-07
(PID.TID 0000.0001) %MON dynstat_vvel_max             =   8.3689891469164E-01
(PID.TID 0000.0001) %MON dynstat_vvel_min             =  -6.3577706489918E-01
(PID.TID 0000.0001) %MON dynstat_vvel_mean            =  -4.8648455523432E-03
(PID.TID 0000.0001) %MON dynstat_vvel_sd              =   1.6277475073144E-02
(PID.TID 0000.0001) %MON dynstat_vvel_del2            =   1.4045585503494E-07
(PID.TID 0000.0001) %MON dynstat_wvel_max             =   6.6217800013610E-03
(PID.TID 0000.0001) %MON dynstat_wvel_min             =  -5.5450536099843E-03
(PID.TID 0000.0001) %MON dynstat_wvel_mean            =  -5.4087002510418E-06
(PID.TID 0000.0001) %MON dynstat_wvel_sd              =   1.1414574595152E-04
(PID.TID 0000.0001) %MON dynstat_wvel_del2            =   1.2456241585616E-08
(PID.TID 0000.0001) %MON dynstat_theta_max            =   2.5557990151101E+01
(PID.TID 0000.0001) %MON dynstat_theta_min            =   1.4441539359227E+00
(PID.TID 0000.0001) %MON dynstat_theta_mean           =   5.5934060645703E+00
(PID.TID 0000.0001) %MON dynstat_theta_sd             =   4.7973218173358E+00
(PID.TID 0000.0001) %MON dynstat_theta_del2           =   1.5132290120303E-06
(PID.TID 0000.0001) %MON dynstat_salt_max             =   3.8096185100184E+01
(PID.TID 0000.0001) %MON dynstat_salt_min             =   3.0532659211075E+01
(PID.TID 0000.0001) %MON dynstat_salt_mean            =   3.5189817986764E+01
(PID.TID 0000.0001) %MON dynstat_salt_sd              =   4.6941948784519E-01
(PID.TID 0000.0001) %MON dynstat_salt_del2            =   2.8470927968673E-07
(PID.TID 0000.0001) %MON forcing_qnet_max             =   6.9495137052416E+02
(PID.TID 0000.0001) %MON forcing_qnet_min             =  -3.0936491660157E+02
(PID.TID 0000.0001) %MON forcing_qnet_mean            =   2.0201076296543E+02
(PID.TID 0000.0001) %MON forcing_qnet_sd              =   1.2261396245603E+02
(PID.TID 0000.0001) %MON forcing_qnet_del2            =   9.6435433112937E-04
(PID.TID 0000.0001) %MON forcing_qsw_max              =   0.0000000000000E+00
(PID.TID 0000.0001) %MON forcing_qsw_min              =   0.0000000000000E+00
(PID.TID 0000.0001) %MON forcing_qsw_mean             =   0.0000000000000E+00
(PID.TID 0000.0001) %MON forcing_qsw_sd               =   0.0000000000000E+00
(PID.TID 0000.0001) %MON forcing_qsw_del2             =   0.0000000000000E+00
(PID.TID 0000.0001) %MON forcing_empmr_max            =   1.6976205724111E-04
(PID.TID 0000.0001) %MON forcing_empmr_min            =  -1.6427561679215E-03
(PID.TID 0000.0001) %MON forcing_empmr_mean           =   7.3037702067411E-06
(PID.TID 0000.0001) %MON forcing_empmr_sd             =   1.3030749626915E-04
(PID.TID 0000.0001) %MON forcing_empmr_del2           =   3.3390366401534E-09
(PID.TID 0000.0001) %MON forcing_fu_max               =   7.7949534366196E-01
(PID.TID 0000.0001) %MON forcing_fu_min               =  -4.0128632238867E-01
(PID.TID 0000.0001) %MON forcing_fu_mean              =   6.3304650982412E-02
(PID.TID 0000.0001) %MON forcing_fu_sd                =   1.5332199568436E-01
(PID.TID 0000.0001) %MON forcing_fu_del2              =   2.8664805559683E-07
(PID.TID 0000.0001) %MON forcing_fv_max               =   4.1222386559439E-01
(PID.TID 0000.0001) %MON forcing_fv_min               =  -5.6452981194351E-01
(PID.TID 0000.0001) %MON forcing_fv_mean              =   1.0424878593945E-02
(PID.TID 0000.0001) %MON forcing_fv_sd                =   1.0081845001686E-01
(PID.TID 0000.0001) %MON forcing_fv_del2              =   2.2715145432646E-07
(PID.TID 0000.0001) %MON trAdv_CFL_u_max              =   5.2735398436325E-02
(PID.TID 0000.0001) %MON trAdv_CFL_v_max              =   5.3037946032654E-02
(PID.TID 0000.0001) %MON trAdv_CFL_w_max              =   2.6616257327925E-01
(PID.TID 0000.0001) %MON advcfl_uvel_max              =   5.2735397904986E-02
(PID.TID 0000.0001) %MON advcfl_vvel_max              =   5.3052008876679E-02
(PID.TID 0000.0001) %MON advcfl_wvel_max              =   2.6616257327925E-01
(PID.TID 0000.0001) %MON advcfl_W_hf_max              =   2.6616257327925E-01
(PID.TID 0000.0001) %MON pe_b_mean                    =  -4.5768648658937E-04
(PID.TID 0000.0001) %MON ke_max                       =   4.3474353772692E-01
(PID.TID 0000.0001) %MON ke_mean                      =   2.9112991291525E-04
(PID.TID 0000.0001) %MON ke_vol                       =   4.5818637279721E+16
(PID.TID 0000.0001) %MON vort_r_min                   =  -3.0964763239214E-04
(PID.TID 0000.0001) %MON vort_r_max                   =   3.9325552406290E-04
(PID.TID 0000.0001) %MON vort_a_mean                  =   8.2147590703444E-05
(PID.TID 0000.0001) %MON vort_a_sd                    =   9.7066605889204E-06
(PID.TID 0000.0001) %MON vort_p_mean                  =   8.4848810947673E-05
(PID.TID 0000.0001) %MON vort_p_sd                    =   3.5001366036059E-05
(PID.TID 0000.0001) %MON surfExpan_theta_mean         =  -7.7120984541104E-05
(PID.TID 0000.0001) %MON surfExpan_salt_mean          =  -2.2424045480293E-04
(PID.TID 0000.0001) // =======================================================
(PID.TID 0000.0001) // End MONITOR dynamic field statistics
(PID.TID 0000.0001) // =======================================================
(PID.TID 0000.0001) // =======================================================
(PID.TID 0000.0001) // Begin OBCS MONITOR field statistics
(PID.TID 0000.0001) // =======================================================
(PID.TID 0000.0001) %MON obc_N_vVel_max               =   7.4411089916576E-02
(PID.TID 0000.0001) %MON obc_N_vVel_min               =  -6.0418405542854E-01
(PID.TID 0000.0001) %MON obc_N_vVel_mean              =  -6.6995493466733E-03
(PID.TID 0000.0001) %MON obc_N_vVel_sd                =   1.6778548997271E-02
(PID.TID 0000.0001) %MON obc_N_vVel_Int               =  -9.5904614759463E+07
(PID.TID 0000.0001) %MON obc_S_vVel_max               =   6.4438631515181E-01
(PID.TID 0000.0001) %MON obc_S_vVel_min               =  -1.0710048809849E-01
(PID.TID 0000.0001) %MON obc_S_vVel_mean              =  -5.5456339053997E-03
(PID.TID 0000.0001) %MON obc_S_vVel_sd                =   2.0040704252887E-02
(PID.TID 0000.0001) %MON obc_S_vVel_Int               =  -1.6882517660484E+08
(PID.TID 0000.0001) %MON obc_N_theta_max              =   1.6146056072053E+01
(PID.TID 0000.0001) %MON obc_N_theta_min              =   1.6876260315423E+00
(PID.TID 0000.0001) %MON obc_N_theta_mean             =   5.2225913290784E+00
(PID.TID 0000.0001) %MON obc_N_theta_sd               =   3.6303928117735E+00
(PID.TID 0000.0001) %MON obc_S_theta_max              =   2.5392463172235E+01
(PID.TID 0000.0001) %MON obc_S_theta_min              =   1.5161808881699E+00
(PID.TID 0000.0001) %MON obc_S_theta_mean             =   5.4082455444269E+00
(PID.TID 0000.0001) %MON obc_S_theta_sd               =   5.1183236729006E+00
(PID.TID 0000.0001) %MON obc_N_salt_max               =   3.6395887207164E+01
(PID.TID 0000.0001) %MON obc_N_salt_min               =   3.0617602503988E+01
(PID.TID 0000.0001) %MON obc_N_salt_mean              =   3.5063772297065E+01
(PID.TID 0000.0001) %MON obc_N_salt_sd                =   3.9119937975099E-01
(PID.TID 0000.0001) %MON obc_S_salt_max               =   3.7332448892596E+01
(PID.TID 0000.0001) %MON obc_S_salt_min               =   3.4852181414831E+01
(PID.TID 0000.0001) %MON obc_S_salt_mean              =   3.5186251023787E+01
(PID.TID 0000.0001) %MON obc_S_salt_sd                =   5.1365392754795E-01
(PID.TID 0000.0001) // =======================================================
(PID.TID 0000.0001) // End OBCS MONITOR field statistics
(PID.TID 0000.0001) // =======================================================
(PID.TID 0000.0001)  EXF_INTERP_READ: opening file: era5/ERA5_rain_2008
(PID.TID 0000.0001)  EXF_INTERP_READ: opening file: era5/ERA5_dsw_2008
(PID.TID 0000.0001)  EXF_INTERP_READ: opening file: era5/ERA5_dlw_2008
(PID.TID 0000.0001) // =======================================================
(PID.TID 0000.0001) // Begin MONITOR EXF statistics
(PID.TID 0000.0001) // =======================================================
(PID.TID 0000.0001) %MON exf_tsnumber                 =                     8
(PID.TID 0000.0001) %MON exf_time_sec                 =   1.9200000000000E+03
(PID.TID 0000.0001) %MON exf_ustress_max              =   7.8811195028666E-01
(PID.TID 0000.0001) %MON exf_ustress_min              =  -3.9876522920568E-01
(PID.TID 0000.0001) %MON exf_ustress_mean             =   6.3335956138989E-02
(PID.TID 0000.0001) %MON exf_ustress_sd               =   1.5324153085264E-01
(PID.TID 0000.0001) %MON exf_ustress_del2             =   3.0831951244190E-07
(PID.TID 0000.0001) %MON exf_vstress_max              =   4.1209143724225E-01
(PID.TID 0000.0001) %MON exf_vstress_min              =  -5.6131805313165E-01
(PID.TID 0000.0001) %MON exf_vstress_mean             =   1.0487859241577E-02
(PID.TID 0000.0001) %MON exf_vstress_sd               =   1.0068933347265E-01
(PID.TID 0000.0001) %MON exf_vstress_del2             =   2.5535439377063E-07
(PID.TID 0000.0001) %MON exf_hflux_max                =   6.8468357670211E+02
(PID.TID 0000.0001) %MON exf_hflux_min                =  -3.0739092025526E+02
(PID.TID 0000.0001) %MON exf_hflux_mean               =   2.0049690092603E+02
(PID.TID 0000.0001) %MON exf_hflux_sd                 =   1.2109854609017E+02
(PID.TID 0000.0001) %MON exf_hflux_del2               =   9.2151004284774E-02
(PID.TID 0000.0001) %MON exf_sflux_max                =   1.6883374096850E-07
(PID.TID 0000.0001) %MON exf_sflux_min                =  -1.7147035960878E-06
(PID.TID 0000.0001) %MON exf_sflux_mean               =   7.6473718447869E-09
(PID.TID 0000.0001) %MON exf_sflux_sd                 =   1.3406084367301E-07
(PID.TID 0000.0001) %MON exf_sflux_del2               =   5.3858100243514E-11
(PID.TID 0000.0001) %MON exf_uwind_max                =   1.9158567797251E+01
(PID.TID 0000.0001) %MON exf_uwind_min                =  -1.4879234628490E+01
(PID.TID 0000.0001) %MON exf_uwind_mean               =   2.5081829692648E+00
(PID.TID 0000.0001) %MON exf_uwind_sd                 =   6.6563171566023E+00
(PID.TID 0000.0001) %MON exf_uwind_del2               =   2.8394548804074E-03
(PID.TID 0000.0001) %MON exf_vwind_max                =   1.4388703693953E+01
(PID.TID 0000.0001) %MON exf_vwind_min                =  -1.2763383389316E+01
(PID.TID 0000.0001) %MON exf_vwind_mean               =   8.5089248330638E-01
(PID.TID 0000.0001) %MON exf_vwind_sd                 =   5.1787412289471E+00
(PID.TID 0000.0001) %MON exf_vwind_del2               =   2.0865769775614E-03
(PID.TID 0000.0001) %MON exf_wspeed_max               =   2.0226658200333E+01
(PID.TID 0000.0001) %MON exf_wspeed_min               =   3.9448883140244E-03
(PID.TID 0000.0001) %MON exf_wspeed_mean              =   7.7094441316558E+00
(PID.TID 0000.0001) %MON exf_wspeed_sd                =   4.3249728105516E+00
(PID.TID 0000.0001) %MON exf_wspeed_del2              =   3.5233978010621E-03
(PID.TID 0000.0001) %MON exf_atemp_max                =   2.9816024585792E+02
(PID.TID 0000.0001) %MON exf_atemp_min                =   2.7434694900651E+02
(PID.TID 0000.0001) %MON exf_atemp_mean               =   2.9067717714392E+02
(PID.TID 0000.0001) %MON exf_atemp_sd                 =   3.9439908504319E+00
(PID.TID 0000.0001) %MON exf_atemp_del2               =   6.8398384934223E-03
(PID.TID 0000.0001) %MON exf_aqh_max                  =   1.6766585126340E-02
(PID.TID 0000.0001) %MON exf_aqh_min                  =   2.7217053503686E-03
(PID.TID 0000.0001) %MON exf_aqh_mean                 =   9.4192672790309E-03
(PID.TID 0000.0001) %MON exf_aqh_sd                   =   2.8735677177259E-03
(PID.TID 0000.0001) %MON exf_aqh_del2                 =   3.7493261346545E-06
(PID.TID 0000.0001) %MON exf_lwflux_max               =   1.6519283495706E+02
(PID.TID 0000.0001) %MON exf_lwflux_min               =  -1.1055490294618E+01
(PID.TID 0000.0001) %MON exf_lwflux_mean              =   6.0758595476707E+01
(PID.TID 0000.0001) %MON exf_lwflux_sd                =   2.6876095915849E+01
(PID.TID 0000.0001) %MON exf_lwflux_del2              =   2.5565396853916E-02
(PID.TID 0000.0001) %MON exf_evap_max                 =   1.9108241481580E-07
(PID.TID 0000.0001) %MON exf_evap_min                 =  -1.0055318086034E-07
(PID.TID 0000.0001) %MON exf_evap_mean                =   4.9593294463979E-08
(PID.TID 0000.0001) %MON exf_evap_sd                  =   3.8645150255098E-08
(PID.TID 0000.0001) %MON exf_evap_del2                =   2.4851592164300E-11
(PID.TID 0000.0001) %MON exf_precip_max               =   1.8946560964359E-06
(PID.TID 0000.0001) %MON exf_precip_min               =   0.0000000000000E+00
(PID.TID 0000.0001) %MON exf_precip_mean              =   4.0357443213972E-08
(PID.TID 0000.0001) %MON exf_precip_sd                =   1.3917898192904E-07
(PID.TID 0000.0001) %MON exf_precip_del2              =   5.8637754918718E-11
(PID.TID 0000.0001) %MON exf_swflux_max               =   0.0000000000000E+00
(PID.TID 0000.0001) %MON exf_swflux_min               =   0.0000000000000E+00
(PID.TID 0000.0001) %MON exf_swflux_mean              =   0.0000000000000E+00
(PID.TID 0000.0001) %MON exf_swflux_sd                =   0.0000000000000E+00
(PID.TID 0000.0001) %MON exf_swflux_del2              =   0.0000000000000E+00
(PID.TID 0000.0001) %MON exf_swdown_max               =   0.0000000000000E+00
(PID.TID 0000.0001) %MON exf_swdown_min               =   0.0000000000000E+00
(PID.TID 0000.0001) %MON exf_swdown_mean              =   0.0000000000000E+00
(PID.TID 0000.0001) %MON exf_swdown_sd                =   0.0000000000000E+00
(PID.TID 0000.0001) %MON exf_swdown_del2              =   0.0000000000000E+00
(PID.TID 0000.0001) %MON exf_lwdown_max               =   4.1825042980031E+02
(PID.TID 0000.0001) %MON exf_lwdown_min               =   2.2314382656222E+02
(PID.TID 0000.0001) %MON exf_lwdown_mean              =   3.4962240595456E+02
(PID.TID 0000.0001) %MON exf_lwdown_sd                =   3.1990071459670E+01
(PID.TID 0000.0001) %MON exf_lwdown_del2              =   1.3541860043837E-01
(PID.TID 0000.0001) %MON exf_apressure_max            =   1.0279973710513E+05
(PID.TID 0000.0001) %MON exf_apressure_min            =   1.0000974426508E+05
(PID.TID 0000.0001) %MON exf_apressure_mean           =   1.0216529723281E+05
(PID.TID 0000.0001) %MON exf_apressure_sd             =   4.9888638326062E+02
(PID.TID 0000.0001) %MON exf_apressure_del2           =   3.9519715493445E+01
(PID.TID 0000.0001) %MON exf_runoff_max               =   4.4374791284855E-08
(PID.TID 0000.0001) %MON exf_runoff_min               =   0.0000000000000E+00
(PID.TID 0000.0001) %MON exf_runoff_mean              =   1.5884794052194E-09
(PID.TID 0000.0001) %MON exf_runoff_sd                =   5.3901957917178E-09
(PID.TID 0000.0001) %MON exf_runoff_del2              =   2.2191214937507E-12
(PID.TID 0000.0001) // =======================================================
(PID.TID 0000.0001) // End MONITOR EXF statistics
(PID.TID 0000.0001) // =======================================================
 cg2d: Sum(rhs),rhsMax =   6.09015305510834E+02  3.68564513566780E-02
(PID.TID 0000.0001)      cg2d_init_res =   6.20401380735010E-01
(PID.TID 0000.0001)      cg2d_iters(min,last) =      -1     309
(PID.TID 0000.0001)      cg2d_last_res =   6.75791514248710E-12
(PID.TID 0000.0001) // =======================================================
(PID.TID 0000.0001) // Begin MONITOR dynamic field statistics
(PID.TID 0000.0001) // =======================================================
(PID.TID 0000.0001) %MON time_tsnumber                =                     9
(PID.TID 0000.0001) %MON time_secondsf                =   2.1600000000000E+03
(PID.TID 0000.0001) %MON dynstat_eta_max              =   1.0543784985081E+00
(PID.TID 0000.0001) %MON dynstat_eta_min              =  -6.1355594365587E-01
(PID.TID 0000.0001) %MON dynstat_eta_mean             =  -2.0710845062769E-02
(PID.TID 0000.0001) %MON dynstat_eta_sd               =   1.3959687437914E-01
(PID.TID 0000.0001) %MON dynstat_eta_del2             =   1.2792324225881E-06
(PID.TID 0000.0001) %MON dynstat_uvel_max             =   7.6948731117821E-01
(PID.TID 0000.0001) %MON dynstat_uvel_min             =  -4.2804514520904E-01
(PID.TID 0000.0001) %MON dynstat_uvel_mean            =  -1.5897513894920E-03
(PID.TID 0000.0001) %MON dynstat_uvel_sd              =   1.7216537792437E-02
(PID.TID 0000.0001) %MON dynstat_uvel_del2            =   1.8075663358535E-07
(PID.TID 0000.0001) %MON dynstat_vvel_max             =   8.3544678592071E-01
(PID.TID 0000.0001) %MON dynstat_vvel_min             =  -6.3818504504807E-01
(PID.TID 0000.0001) %MON dynstat_vvel_mean            =  -5.2698319119809E-03
(PID.TID 0000.0001) %MON dynstat_vvel_sd              =   1.6323639659780E-02
(PID.TID 0000.0001) %MON dynstat_vvel_del2            =   1.4725431823979E-07
(PID.TID 0000.0001) %MON dynstat_wvel_max             =   6.4000532530824E-03
(PID.TID 0000.0001) %MON dynstat_wvel_min             =  -5.6964727870369E-03
(PID.TID 0000.0001) %MON dynstat_wvel_mean            =  -4.7554887533651E-06
(PID.TID 0000.0001) %MON dynstat_wvel_sd              =   1.1739379916476E-04
(PID.TID 0000.0001) %MON dynstat_wvel_del2            =   1.2767955402181E-08
(PID.TID 0000.0001) %MON dynstat_theta_max            =   2.5559737803880E+01
(PID.TID 0000.0001) %MON dynstat_theta_min            =   1.4441539397989E+00
(PID.TID 0000.0001) %MON dynstat_theta_mean           =   5.5934051008610E+00
(PID.TID 0000.0001) %MON dynstat_theta_sd             =   4.7973140496566E+00
(PID.TID 0000.0001) %MON dynstat_theta_del2           =   1.5185294681655E-06
(PID.TID 0000.0001) %MON dynstat_salt_max             =   3.8096132227349E+01
(PID.TID 0000.0001) %MON dynstat_salt_min             =   3.0533160670348E+01
(PID.TID 0000.0001) %MON dynstat_salt_mean            =   3.5189817535446E+01
(PID.TID 0000.0001) %MON dynstat_salt_sd              =   4.6942152932604E-01
(PID.TID 0000.0001) %MON dynstat_salt_del2            =   2.8905111212042E-07
(PID.TID 0000.0001) %MON forcing_qnet_max             =   6.8947479905554E+02
(PID.TID 0000.0001) %MON forcing_qnet_min             =  -3.1223087210629E+02
(PID.TID 0000.0001) %MON forcing_qnet_mean            =   2.0168345278582E+02
(PID.TID 0000.0001) %MON forcing_qnet_sd              =   1.2236486431290E+02
(PID.TID 0000.0001) %MON forcing_qnet_del2            =   9.7503211253955E-04
(PID.TID 0000.0001) %MON forcing_qsw_max              =   0.0000000000000E+00
(PID.TID 0000.0001) %MON forcing_qsw_min              =   0.0000000000000E+00
(PID.TID 0000.0001) %MON forcing_qsw_mean             =   0.0000000000000E+00
(PID.TID 0000.0001) %MON forcing_qsw_sd               =   0.0000000000000E+00
(PID.TID 0000.0001) %MON forcing_qsw_del2             =   0.0000000000000E+00
(PID.TID 0000.0001) %MON forcing_empmr_max            =   1.6883374096850E-04
(PID.TID 0000.0001) %MON forcing_empmr_min            =  -1.7147035960878E-03
(PID.TID 0000.0001) %MON forcing_empmr_mean           =   7.6473718447869E-06
(PID.TID 0000.0001) %MON forcing_empmr_sd             =   1.3406084367301E-04
(PID.TID 0000.0001) %MON forcing_empmr_del2           =   3.3483942842819E-09
(PID.TID 0000.0001) %MON forcing_fu_max               =   7.8804692215294E-01
(PID.TID 0000.0001) %MON forcing_fu_min               =  -3.9867953950813E-01
(PID.TID 0000.0001) %MON forcing_fu_mean              =   6.3395399622743E-02
(PID.TID 0000.0001) %MON forcing_fu_sd                =   1.5330009004301E-01
(PID.TID 0000.0001) %MON forcing_fu_del2              =   2.8902671575798E-07
(PID.TID 0000.0001) %MON forcing_fv_max               =   4.1208456119595E-01
(PID.TID 0000.0001) %MON forcing_fv_min               =  -5.6492754297766E-01
(PID.TID 0000.0001) %MON forcing_fv_mean              =   1.0470240973791E-02
(PID.TID 0000.0001) %MON forcing_fv_sd                =   1.0081904371310E-01
(PID.TID 0000.0001) %MON forcing_fv_del2              =   2.2994942474385E-07
(PID.TID 0000.0001) %MON trAdv_CFL_u_max              =   5.1859633296000E-02
(PID.TID 0000.0001) %MON trAdv_CFL_v_max              =   5.2945918278725E-02
(PID.TID 0000.0001) %MON trAdv_CFL_w_max              =   2.7331157976112E-01
(PID.TID 0000.0001) %MON advcfl_uvel_max              =   5.1859632773484E-02
(PID.TID 0000.0001) %MON advcfl_vvel_max              =   5.2959956721882E-02
(PID.TID 0000.0001) %MON advcfl_wvel_max              =   2.7331157976112E-01
(PID.TID 0000.0001) %MON advcfl_W_hf_max              =   2.7331157976112E-01
(PID.TID 0000.0001) %MON pe_b_mean                    =  -4.8638246397874E-04
(PID.TID 0000.0001) %MON ke_max                       =   4.4306142572674E-01
(PID.TID 0000.0001) %MON ke_mean                      =   2.9428127742453E-04
(PID.TID 0000.0001) %MON ke_vol                       =   4.5818637279721E+16
(PID.TID 0000.0001) %MON vort_r_min                   =  -3.1583855412311E-04
(PID.TID 0000.0001) %MON vort_r_max                   =   3.9321415665736E-04
(PID.TID 0000.0001) %MON vort_a_mean                  =   8.2147590930373E-05
(PID.TID 0000.0001) %MON vort_a_sd                    =   9.7071170880002E-06
(PID.TID 0000.0001) %MON vort_p_mean                  =   8.4848811182063E-05
(PID.TID 0000.0001) %MON vort_p_sd                    =   3.5002066006702E-05
(PID.TID 0000.0001) %MON surfExpan_theta_mean         =  -5.0343550554380E-05
(PID.TID 0000.0001) %MON surfExpan_salt_mean          =  -1.8378825166671E-04
(PID.TID 0000.0001) // =======================================================
(PID.TID 0000.0001) // End MONITOR dynamic field statistics
(PID.TID 0000.0001) // =======================================================
(PID.TID 0000.0001) // =======================================================
(PID.TID 0000.0001) // Begin OBCS MONITOR field statistics
(PID.TID 0000.0001) // =======================================================
(PID.TID 0000.0001) %MON obc_N_vVel_max               =   7.4328091246864E-02
(PID.TID 0000.0001) %MON obc_N_vVel_min               =  -6.0333248927169E-01
(PID.TID 0000.0001) %MON obc_N_vVel_mean              =  -6.7938895718825E-03
(PID.TID 0000.0001) %MON obc_N_vVel_sd                =   1.6807703505032E-02
(PID.TID 0000.0001) %MON obc_N_vVel_Int               =  -9.7255103051560E+07
(PID.TID 0000.0001) %MON obc_S_vVel_max               =   6.4521313859504E-01
(PID.TID 0000.0001) %MON obc_S_vVel_min               =  -1.0698586880076E-01
(PID.TID 0000.0001) %MON obc_S_vVel_mean              =  -5.1905598624442E-03
(PID.TID 0000.0001) %MON obc_S_vVel_sd                =   2.0021459849929E-02
(PID.TID 0000.0001) %MON obc_S_vVel_Int               =  -1.5801569313868E+08
(PID.TID 0000.0001) %MON obc_N_theta_max              =   1.6146061663461E+01
(PID.TID 0000.0001) %MON obc_N_theta_min              =   1.6875573573416E+00
(PID.TID 0000.0001) %MON obc_N_theta_mean             =   5.2225894027897E+00
(PID.TID 0000.0001) %MON obc_N_theta_sd               =   3.6303890269961E+00
(PID.TID 0000.0001) %MON obc_S_theta_max              =   2.5392450895055E+01
(PID.TID 0000.0001) %MON obc_S_theta_min              =   1.5161808664549E+00
(PID.TID 0000.0001) %MON obc_S_theta_mean             =   5.4082446232790E+00
(PID.TID 0000.0001) %MON obc_S_theta_sd               =   5.1183204775421E+00
(PID.TID 0000.0001) %MON obc_N_salt_max               =   3.6395888550619E+01
(PID.TID 0000.0001) %MON obc_N_salt_min               =   3.0617619067590E+01
(PID.TID 0000.0001) %MON obc_N_salt_mean              =   3.5063772367417E+01
(PID.TID 0000.0001) %MON obc_N_salt_sd                =   3.9119900781782E-01
(PID.TID 0000.0001) %MON obc_S_salt_max               =   3.7332439513471E+01
(PID.TID 0000.0001) %MON obc_S_salt_min               =   3.4852181413090E+01
(PID.TID 0000.0001) %MON obc_S_salt_mean              =   3.5186251064283E+01
(PID.TID 0000.0001) %MON obc_S_salt_sd                =   5.1365401365665E-01
(PID.TID 0000.0001) // =======================================================
(PID.TID 0000.0001) // End OBCS MONITOR field statistics
(PID.TID 0000.0001) // =======================================================
(PID.TID 0000.0001) // =======================================================
(PID.TID 0000.0001) // Begin MONITOR EXF statistics
(PID.TID 0000.0001) // =======================================================
(PID.TID 0000.0001) %MON exf_tsnumber                 =                     9
(PID.TID 0000.0001) %MON exf_time_sec                 =   2.1600000000000E+03
(PID.TID 0000.0001) %MON exf_ustress_max              =   7.9821910854239E-01
(PID.TID 0000.0001) %MON exf_ustress_min              =  -3.9625462711293E-01
(PID.TID 0000.0001) %MON exf_ustress_mean             =   6.3451916424855E-02
(PID.TID 0000.0001) %MON exf_ustress_sd               =   1.5329385406566E-01
(PID.TID 0000.0001) %MON exf_ustress_del2             =   3.1465944832283E-07
(PID.TID 0000.0001) %MON exf_vstress_max              =   4.1276269609231E-01
(PID.TID 0000.0001) %MON exf_vstress_min              =  -5.6212545639806E-01
(PID.TID 0000.0001) %MON exf_vstress_mean             =   1.0540217610148E-02
(PID.TID 0000.0001) %MON exf_vstress_sd               =   1.0075675567313E-01
(PID.TID 0000.0001) %MON exf_vstress_del2             =   2.6145522029940E-07
(PID.TID 0000.0001) %MON exf_hflux_max                =   6.8157862381042E+02
(PID.TID 0000.0001) %MON exf_hflux_min                =  -3.0934923767285E+02
(PID.TID 0000.0001) %MON exf_hflux_mean               =   2.0053410406297E+02
(PID.TID 0000.0001) %MON exf_hflux_sd                 =   1.2106664799265E+02
(PID.TID 0000.0001) %MON exf_hflux_del2               =   9.2163266237898E-02
(PID.TID 0000.0001) %MON exf_sflux_max                =   1.6825879104116E-07
(PID.TID 0000.0001) %MON exf_sflux_min                =  -1.7335485075555E-06
(PID.TID 0000.0001) %MON exf_sflux_mean               =   7.4141494517813E-09
(PID.TID 0000.0001) %MON exf_sflux_sd                 =   1.3319544963230E-07
(PID.TID 0000.0001) %MON exf_sflux_del2               =   5.3365659703143E-11
(PID.TID 0000.0001) %MON exf_uwind_max                =   1.9253197024963E+01
(PID.TID 0000.0001) %MON exf_uwind_min                =  -1.4852849351367E+01
(PID.TID 0000.0001) %MON exf_uwind_mean               =   2.5094371840263E+00
(PID.TID 0000.0001) %MON exf_uwind_sd                 =   6.6562299505352E+00
(PID.TID 0000.0001) %MON exf_uwind_del2               =   2.8395684841388E-03
(PID.TID 0000.0001) %MON exf_vwind_max                =   1.4413603684787E+01
(PID.TID 0000.0001) %MON exf_vwind_min                =  -1.2770295475540E+01
(PID.TID 0000.0001) %MON exf_vwind_mean               =   8.5258723970259E-01
(PID.TID 0000.0001) %MON exf_vwind_sd                 =   5.1778627685634E+00
(PID.TID 0000.0001) %MON exf_vwind_del2               =   2.0866486891369E-03
(PID.TID 0000.0001) %MON exf_wspeed_max               =   2.0205281529308E+01
(PID.TID 0000.0001) %MON exf_wspeed_min               =   1.2128998549608E-02
(PID.TID 0000.0001) %MON exf_wspeed_mean              =   7.7083369236808E+00
(PID.TID 0000.0001) %MON exf_wspeed_sd                =   4.3268212185591E+00
(PID.TID 0000.0001) %MON exf_wspeed_del2              =   3.5235291812414E-03
(PID.TID 0000.0001) %MON exf_atemp_max                =   2.9815804856951E+02
(PID.TID 0000.0001) %MON exf_atemp_min                =   2.7432134779787E+02
(PID.TID 0000.0001) %MON exf_atemp_mean               =   2.9067405593773E+02
(PID.TID 0000.0001) %MON exf_atemp_sd                 =   3.9444520568666E+00
(PID.TID 0000.0001) %MON exf_atemp_del2               =   6.8386549877382E-03
(PID.TID 0000.0001) %MON exf_aqh_max                  =   1.6759598825467E-02
(PID.TID 0000.0001) %MON exf_aqh_min                  =   2.7194106526046E-03
(PID.TID 0000.0001) %MON exf_aqh_mean                 =   9.4180791262168E-03
(PID.TID 0000.0001) %MON exf_aqh_sd                   =   2.8742704570836E-03
(PID.TID 0000.0001) %MON exf_aqh_del2                 =   3.7488797611757E-06
(PID.TID 0000.0001) %MON exf_lwflux_max               =   1.6550324273583E+02
(PID.TID 0000.0001) %MON exf_lwflux_min               =  -9.8929953875470E+00
(PID.TID 0000.0001) %MON exf_lwflux_mean              =   6.0741769730675E+01
(PID.TID 0000.0001) %MON exf_lwflux_sd                =   2.6778414016833E+01
(PID.TID 0000.0001) %MON exf_lwflux_del2              =   2.5540887427169E-02
(PID.TID 0000.0001) %MON exf_evap_max                 =   1.9060836400211E-07
(PID.TID 0000.0001) %MON exf_evap_min                 =  -1.0098302274668E-07
(PID.TID 0000.0001) %MON exf_evap_mean                =   4.9603207343201E-08
(PID.TID 0000.0001) %MON exf_evap_sd                  =   3.8627240399187E-08
(PID.TID 0000.0001) %MON exf_evap_del2                =   2.4852523740141E-11
(PID.TID 0000.0001) %MON exf_precip_max               =   1.9141066233964E-06
(PID.TID 0000.0001) %MON exf_precip_min               =   0.0000000000000E+00
(PID.TID 0000.0001) %MON exf_precip_mean              =   4.0600578486200E-08
(PID.TID 0000.0001) %MON exf_precip_sd                =   1.3843006107081E-07
(PID.TID 0000.0001) %MON exf_precip_del2              =   5.8245473505235E-11
(PID.TID 0000.0001) %MON exf_swflux_max               =   0.0000000000000E+00
(PID.TID 0000.0001) %MON exf_swflux_min               =   0.0000000000000E+00
(PID.TID 0000.0001) %MON exf_swflux_mean              =   0.0000000000000E+00
(PID.TID 0000.0001) %MON exf_swflux_sd                =   0.0000000000000E+00
(PID.TID 0000.0001) %MON exf_swflux_del2              =   0.0000000000000E+00
(PID.TID 0000.0001) %MON exf_swdown_max               =   0.0000000000000E+00
(PID.TID 0000.0001) %MON exf_swdown_min               =   0.0000000000000E+00
(PID.TID 0000.0001) %MON exf_swdown_mean              =   0.0000000000000E+00
(PID.TID 0000.0001) %MON exf_swdown_sd                =   0.0000000000000E+00
(PID.TID 0000.0001) %MON exf_swdown_del2              =   0.0000000000000E+00
(PID.TID 0000.0001) %MON exf_lwdown_max               =   4.1828155240958E+02
(PID.TID 0000.0001) %MON exf_lwdown_min               =   2.2358340796167E+02
(PID.TID 0000.0001) %MON exf_lwdown_mean              =   3.4963689710756E+02
(PID.TID 0000.0001) %MON exf_lwdown_sd                =   3.1864235004662E+01
(PID.TID 0000.0001) %MON exf_lwdown_del2              =   1.3542076220153E-01
(PID.TID 0000.0001) %MON exf_apressure_max            =   1.0280269188821E+05
(PID.TID 0000.0001) %MON exf_apressure_min            =   1.0001241170265E+05
(PID.TID 0000.0001) %MON exf_apressure_mean           =   1.0216607453936E+05
(PID.TID 0000.0001) %MON exf_apressure_sd             =   4.9880298184990E+02
(PID.TID 0000.0001) %MON exf_apressure_del2           =   3.9520022984619E+01
(PID.TID 0000.0001) %MON exf_runoff_max               =   4.4374791284855E-08
(PID.TID 0000.0001) %MON exf_runoff_min               =   0.0000000000000E+00
(PID.TID 0000.0001) %MON exf_runoff_mean              =   1.5884794052194E-09
(PID.TID 0000.0001) %MON exf_runoff_sd                =   5.3901957917178E-09
(PID.TID 0000.0001) %MON exf_runoff_del2              =   2.2191214937507E-12
(PID.TID 0000.0001) // =======================================================
(PID.TID 0000.0001) // End MONITOR EXF statistics
(PID.TID 0000.0001) // =======================================================
 cg2d: Sum(rhs),rhsMax =   6.39316418381356E+02  4.09758461287988E-02
(PID.TID 0000.0001)      cg2d_init_res =   5.93045052622926E-01
(PID.TID 0000.0001)      cg2d_iters(min,last) =      -1     308
(PID.TID 0000.0001)      cg2d_last_res =   6.90875692730885E-12
(PID.TID 0000.0001) // =======================================================
(PID.TID 0000.0001) // Begin MONITOR dynamic field statistics
(PID.TID 0000.0001) // =======================================================
(PID.TID 0000.0001) %MON time_tsnumber                =                    10
(PID.TID 0000.0001) %MON time_secondsf                =   2.4000000000000E+03
(PID.TID 0000.0001) %MON dynstat_eta_max              =   9.8007196747443E-01
(PID.TID 0000.0001) %MON dynstat_eta_min              =  -6.3937254957869E-01
(PID.TID 0000.0001) %MON dynstat_eta_mean             =  -2.1741298071441E-02
(PID.TID 0000.0001) %MON dynstat_eta_sd               =   1.4810421239621E-01
(PID.TID 0000.0001) %MON dynstat_eta_del2             =   1.2531124407017E-06
(PID.TID 0000.0001) %MON dynstat_uvel_max             =   8.5716899647006E-01
(PID.TID 0000.0001) %MON dynstat_uvel_min             =  -3.4319307412288E-01
(PID.TID 0000.0001) %MON dynstat_uvel_mean            =  -1.8466083797424E-03
(PID.TID 0000.0001) %MON dynstat_uvel_sd              =   1.7209383285835E-02
(PID.TID 0000.0001) %MON dynstat_uvel_del2            =   1.8824463170400E-07
(PID.TID 0000.0001) %MON dynstat_vvel_max             =   8.4614935885643E-01
(PID.TID 0000.0001) %MON dynstat_vvel_min             =  -6.4009858576108E-01
(PID.TID 0000.0001) %MON dynstat_vvel_mean            =  -5.6319730190667E-03
(PID.TID 0000.0001) %MON dynstat_vvel_sd              =   1.6371495946341E-02
(PID.TID 0000.0001) %MON dynstat_vvel_del2            =   1.5356022973725E-07
(PID.TID 0000.0001) %MON dynstat_wvel_max             =   6.1922181760334E-03
(PID.TID 0000.0001) %MON dynstat_wvel_min             =  -5.7022340175332E-03
(PID.TID 0000.0001) %MON dynstat_wvel_mean            =  -4.0966513336692E-06
(PID.TID 0000.0001) %MON dynstat_wvel_sd              =   1.2054505855928E-04
(PID.TID 0000.0001) %MON dynstat_wvel_del2            =   1.3057361725824E-08
(PID.TID 0000.0001) %MON dynstat_theta_max            =   2.5561130151642E+01
(PID.TID 0000.0001) %MON dynstat_theta_min            =   1.4441539436751E+00
(PID.TID 0000.0001) %MON dynstat_theta_mean           =   5.5934030176895E+00
(PID.TID 0000.0001) %MON dynstat_theta_sd             =   4.7973042759425E+00
(PID.TID 0000.0001) %MON dynstat_theta_del2           =   1.5243234791858E-06
(PID.TID 0000.0001) %MON dynstat_salt_max             =   3.8096099488355E+01
(PID.TID 0000.0001) %MON dynstat_salt_min             =   3.0533651176864E+01
(PID.TID 0000.0001) %MON dynstat_salt_mean            =   3.5189816976445E+01
(PID.TID 0000.0001) %MON dynstat_salt_sd              =   4.6942320633981E-01
(PID.TID 0000.0001) %MON dynstat_salt_del2            =   2.9403151036073E-07
(PID.TID 0000.0001) %MON forcing_qnet_max             =   6.8592216616161E+02
(PID.TID 0000.0001) %MON forcing_qnet_min             =  -3.1422396707732E+02
(PID.TID 0000.0001) %MON forcing_qnet_mean            =   2.0170485213518E+02
(PID.TID 0000.0001) %MON forcing_qnet_sd              =   1.2231766278741E+02
(PID.TID 0000.0001) %MON forcing_qnet_del2            =   9.7633107134497E-04
(PID.TID 0000.0001) %MON forcing_qsw_max              =   0.0000000000000E+00
(PID.TID 0000.0001) %MON forcing_qsw_min              =   0.0000000000000E+00
(PID.TID 0000.0001) %MON forcing_qsw_mean             =   0.0000000000000E+00
(PID.TID 0000.0001) %MON forcing_qsw_sd               =   0.0000000000000E+00
(PID.TID 0000.0001) %MON forcing_qsw_del2             =   0.0000000000000E+00
(PID.TID 0000.0001) %MON forcing_empmr_max            =   1.6825879104116E-04
(PID.TID 0000.0001) %MON forcing_empmr_min            =  -1.7335485075555E-03
(PID.TID 0000.0001) %MON forcing_empmr_mean           =   7.4141494517813E-06
(PID.TID 0000.0001) %MON forcing_empmr_sd             =   1.3319544963230E-04
(PID.TID 0000.0001) %MON forcing_empmr_del2           =   3.1564271245112E-09
(PID.TID 0000.0001) %MON forcing_fu_max               =   7.9806072093640E-01
(PID.TID 0000.0001) %MON forcing_fu_min               =  -3.9623975677402E-01
(PID.TID 0000.0001) %MON forcing_fu_mean              =   6.3511822529893E-02
(PID.TID 0000.0001) %MON forcing_fu_sd                =   1.5335258710118E-01
(PID.TID 0000.0001) %MON forcing_fu_del2              =   2.9536195730536E-07
(PID.TID 0000.0001) %MON forcing_fv_max               =   4.1254048543062E-01
(PID.TID 0000.0001) %MON forcing_fv_min               =  -5.6594681094984E-01
(PID.TID 0000.0001) %MON forcing_fv_mean              =   1.0522905156496E-02
(PID.TID 0000.0001) %MON forcing_fv_sd                =   1.0088668688393E-01
(PID.TID 0000.0001) %MON forcing_fv_del2              =   2.3607167394061E-07
(PID.TID 0000.0001) %MON trAdv_CFL_u_max              =   5.0947280674321E-02
(PID.TID 0000.0001) %MON trAdv_CFL_v_max              =   5.3636192282379E-02
(PID.TID 0000.0001) %MON trAdv_CFL_w_max              =   2.7370723284159E-01
(PID.TID 0000.0001) %MON advcfl_uvel_max              =   5.0947280160998E-02
(PID.TID 0000.0001) %MON advcfl_vvel_max              =   5.3654934066965E-02
(PID.TID 0000.0001) %MON advcfl_wvel_max              =   2.7370723284159E-01
(PID.TID 0000.0001) %MON advcfl_W_hf_max              =   2.7370723284159E-01
(PID.TID 0000.0001) %MON pe_b_mean                    =  -5.0882181838966E-04
(PID.TID 0000.0001) %MON ke_max                       =   4.5364506044949E-01
(PID.TID 0000.0001) %MON ke_mean                      =   2.9734051929701E-04
(PID.TID 0000.0001) %MON ke_vol                       =   4.5818637279721E+16
(PID.TID 0000.0001) %MON vort_r_min                   =  -3.2061563546126E-04
(PID.TID 0000.0001) %MON vort_r_max                   =   3.9164741692389E-04
(PID.TID 0000.0001) %MON vort_a_mean                  =   8.2147591171746E-05
(PID.TID 0000.0001) %MON vort_a_sd                    =   9.7074980474214E-06
(PID.TID 0000.0001) %MON vort_p_mean                  =   8.4848811431374E-05
(PID.TID 0000.0001) %MON vort_p_sd                    =   3.5002906926230E-05
(PID.TID 0000.0001) %MON surfExpan_theta_mean         =  -2.5512905862512E-05
(PID.TID 0000.0001) %MON surfExpan_salt_mean          =  -1.4384041015568E-04
(PID.TID 0000.0001) // =======================================================
(PID.TID 0000.0001) // End MONITOR dynamic field statistics
(PID.TID 0000.0001) // =======================================================
(PID.TID 0000.0001) // =======================================================
(PID.TID 0000.0001) // Begin OBCS MONITOR field statistics
(PID.TID 0000.0001) // =======================================================
(PID.TID 0000.0001) %MON obc_N_vVel_max               =   7.4250537409111E-02
(PID.TID 0000.0001) %MON obc_N_vVel_min               =  -6.0179653133300E-01
(PID.TID 0000.0001) %MON obc_N_vVel_mean              =  -6.8796454631124E-03
(PID.TID 0000.0001) %MON obc_N_vVel_sd                =   1.6827091864161E-02
(PID.TID 0000.0001) %MON obc_N_vVel_Int               =  -9.8482705877687E+07
(PID.TID 0000.0001) %MON obc_S_vVel_max               =   6.4602073459498E-01
(PID.TID 0000.0001) %MON obc_S_vVel_min               =  -1.0687387280594E-01
(PID.TID 0000.0001) %MON obc_S_vVel_mean              =  -4.8289143623764E-03
(PID.TID 0000.0001) %MON obc_S_vVel_sd                =   2.0001555787474E-02
(PID.TID 0000.0001) %MON obc_S_vVel_Int               =  -1.4700615546296E+08
(PID.TID 0000.0001) %MON obc_N_theta_max              =   1.6146067254869E+01
(PID.TID 0000.0001) %MON obc_N_theta_min              =   1.6874886831409E+00
(PID.TID 0000.0001) %MON obc_N_theta_mean             =   5.2225874765010E+00
(PID.TID 0000.0001) %MON obc_N_theta_sd               =   3.6303852422769E+00
(PID.TID 0000.0001) %MON obc_S_theta_max              =   2.5392438617874E+01
(PID.TID 0000.0001) %MON obc_S_theta_min              =   1.5161808447399E+00
(PID.TID 0000.0001) %MON obc_S_theta_mean             =   5.4082437021311E+00
(PID.TID 0000.0001) %MON obc_S_theta_sd               =   5.1183172821966E+00
(PID.TID 0000.0001) %MON obc_N_salt_max               =   3.6395889894075E+01
(PID.TID 0000.0001) %MON obc_N_salt_min               =   3.0617635631191E+01
(PID.TID 0000.0001) %MON obc_N_salt_mean              =   3.5063772437769E+01
(PID.TID 0000.0001) %MON obc_N_salt_sd                =   3.9119863590864E-01
(PID.TID 0000.0001) %MON obc_S_salt_max               =   3.7332430134346E+01
(PID.TID 0000.0001) %MON obc_S_salt_min               =   3.4852181411350E+01
(PID.TID 0000.0001) %MON obc_S_salt_mean              =   3.5186251104779E+01
(PID.TID 0000.0001) %MON obc_S_salt_sd                =   5.1365409976985E-01
(PID.TID 0000.0001) // =======================================================
(PID.TID 0000.0001) // End OBCS MONITOR field statistics
(PID.TID 0000.0001) // =======================================================
(PID.TID 0000.0001) // =======================================================
(PID.TID 0000.0001) // Begin MONITOR EXF statistics
(PID.TID 0000.0001) // =======================================================
(PID.TID 0000.0001) %MON exf_tsnumber                 =                    10
(PID.TID 0000.0001) %MON exf_time_sec                 =   2.4000000000000E+03
(PID.TID 0000.0001) %MON exf_ustress_max              =   8.0918924612685E-01
(PID.TID 0000.0001) %MON exf_ustress_min              =  -3.9389114239903E-01
(PID.TID 0000.0001) %MON exf_ustress_mean             =   6.3593299932238E-02
(PID.TID 0000.0001) %MON exf_ustress_sd               =   1.5341956079042E-01
(PID.TID 0000.0001) %MON exf_ustress_del2             =   3.2448934321308E-07
(PID.TID 0000.0001) %MON exf_vstress_max              =   4.1414849457395E-01
(PID.TID 0000.0001) %MON exf_vstress_min              =  -5.6315200192974E-01
(PID.TID 0000.0001) %MON exf_vstress_mean             =   1.0598227190379E-02
(PID.TID 0000.0001) %MON exf_vstress_sd               =   1.0088906215730E-01
(PID.TID 0000.0001) %MON exf_vstress_del2             =   2.7069984344263E-07
(PID.TID 0000.0001) %MON exf_hflux_max                =   6.7861847358610E+02
(PID.TID 0000.0001) %MON exf_hflux_min                =  -3.1143206235372E+02
(PID.TID 0000.0001) %MON exf_hflux_mean               =   2.0059059070377E+02
(PID.TID 0000.0001) %MON exf_hflux_sd                 =   1.2107457217891E+02
(PID.TID 0000.0001) %MON exf_hflux_del2               =   9.2190589864414E-02
(PID.TID 0000.0001) %MON exf_sflux_max                =   1.6769106112777E-07
(PID.TID 0000.0001) %MON exf_sflux_min                =  -1.7523921067844E-06
(PID.TID 0000.0001) %MON exf_sflux_mean               =   7.1873907504308E-09
(PID.TID 0000.0001) %MON exf_sflux_sd                 =   1.3263368419447E-07
(PID.TID 0000.0001) %MON exf_sflux_del2               =   5.3001626194175E-11
(PID.TID 0000.0001) %MON exf_uwind_max                =   1.9357403803211E+01
(PID.TID 0000.0001) %MON exf_uwind_min                =  -1.4826705216339E+01
(PID.TID 0000.0001) %MON exf_uwind_mean               =   2.5107442097999E+00
(PID.TID 0000.0001) %MON exf_uwind_sd                 =   6.6568790211741E+00
(PID.TID 0000.0001) %MON exf_uwind_del2               =   2.8399689902211E-03
(PID.TID 0000.0001) %MON exf_vwind_max                =   1.4451778817919E+01
(PID.TID 0000.0001) %MON exf_vwind_min                =  -1.2781698317454E+01
(PID.TID 0000.0001) %MON exf_vwind_mean               =   8.5427170237519E-01
(PID.TID 0000.0001) %MON exf_vwind_sd                 =   5.1784883242707E+00
(PID.TID 0000.0001) %MON exf_vwind_del2               =   2.0873204546273E-03
(PID.TID 0000.0001) %MON exf_wspeed_max               =   2.0190002146908E+01
(PID.TID 0000.0001) %MON exf_wspeed_min               =   3.5848735969197E-03
(PID.TID 0000.0001) %MON exf_wspeed_mean              =   7.7083662753343E+00
(PID.TID 0000.0001) %MON exf_wspeed_sd                =   4.3296057119520E+00
(PID.TID 0000.0001) %MON exf_wspeed_del2              =   3.5242435512375E-03
(PID.TID 0000.0001) %MON exf_atemp_max                =   2.9815585128109E+02
(PID.TID 0000.0001) %MON exf_atemp_min                =   2.7429574658923E+02
(PID.TID 0000.0001) %MON exf_atemp_mean               =   2.9067093473153E+02
(PID.TID 0000.0001) %MON exf_atemp_sd                 =   3.9450556500922E+00
(PID.TID 0000.0001) %MON exf_atemp_del2               =   6.8374852327902E-03
(PID.TID 0000.0001) %MON exf_aqh_max                  =   1.6752612524593E-02
(PID.TID 0000.0001) %MON exf_aqh_min                  =   2.7171159548406E-03
(PID.TID 0000.0001) %MON exf_aqh_mean                 =   9.4168909734027E-03
(PID.TID 0000.0001) %MON exf_aqh_sd                   =   2.8751456814907E-03
(PID.TID 0000.0001) %MON exf_aqh_del2                 =   3.7484551964519E-06
(PID.TID 0000.0001) %MON exf_lwflux_max               =   1.6581388633091E+02
(PID.TID 0000.0001) %MON exf_lwflux_min               =  -8.8217340272463E+00
(PID.TID 0000.0001) %MON exf_lwflux_mean              =   6.0725133531593E+01
(PID.TID 0000.0001) %MON exf_lwflux_sd                =   2.6699447791231E+01
(PID.TID 0000.0001) %MON exf_lwflux_del2              =   2.5519661668095E-02
(PID.TID 0000.0001) %MON exf_evap_max                 =   1.9084052642124E-07
(PID.TID 0000.0001) %MON exf_evap_min                 =  -1.0143387285711E-07
(PID.TID 0000.0001) %MON exf_evap_mean                =   4.9619583914078E-08
(PID.TID 0000.0001) %MON exf_evap_sd                  =   3.8621005104178E-08
(PID.TID 0000.0001) %MON exf_evap_del2                =   2.4858471588716E-11
(PID.TID 0000.0001) %MON exf_precip_max               =   1.9335571503569E-06
(PID.TID 0000.0001) %MON exf_precip_min               =   0.0000000000000E+00
(PID.TID 0000.0001) %MON exf_precip_mean              =   4.0843713758428E-08
(PID.TID 0000.0001) %MON exf_precip_sd                =   1.3798293944741E-07
(PID.TID 0000.0001) %MON exf_precip_del2              =   5.7975422738598E-11
(PID.TID 0000.0001) %MON exf_swflux_max               =   0.0000000000000E+00
(PID.TID 0000.0001) %MON exf_swflux_min               =   0.0000000000000E+00
(PID.TID 0000.0001) %MON exf_swflux_mean              =   0.0000000000000E+00
(PID.TID 0000.0001) %MON exf_swflux_sd                =   0.0000000000000E+00
(PID.TID 0000.0001) %MON exf_swflux_del2              =   0.0000000000000E+00
(PID.TID 0000.0001) %MON exf_swdown_max               =   0.0000000000000E+00
(PID.TID 0000.0001) %MON exf_swdown_min               =   0.0000000000000E+00
(PID.TID 0000.0001) %MON exf_swdown_mean              =   0.0000000000000E+00
(PID.TID 0000.0001) %MON exf_swdown_sd                =   0.0000000000000E+00
(PID.TID 0000.0001) %MON exf_swdown_del2              =   0.0000000000000E+00
(PID.TID 0000.0001) %MON exf_lwdown_max               =   4.1831267501885E+02
(PID.TID 0000.0001) %MON exf_lwdown_min               =   2.2402298936111E+02
(PID.TID 0000.0001) %MON exf_lwdown_mean              =   3.4965138826056E+02
(PID.TID 0000.0001) %MON exf_lwdown_sd                =   3.1755013557864E+01
(PID.TID 0000.0001) %MON exf_lwdown_del2              =   1.3542357561132E-01
(PID.TID 0000.0001) %MON exf_apressure_max            =   1.0280576881181E+05
(PID.TID 0000.0001) %MON exf_apressure_min            =   1.0001483343524E+05
(PID.TID 0000.0001) %MON exf_apressure_mean           =   1.0216685184592E+05
(PID.TID 0000.0001) %MON exf_apressure_sd             =   4.9875939305256E+02
(PID.TID 0000.0001) %MON exf_apressure_del2           =   3.9520330557201E+01
(PID.TID 0000.0001) %MON exf_runoff_max               =   4.4374791284855E-08
(PID.TID 0000.0001) %MON exf_runoff_min               =   0.0000000000000E+00
(PID.TID 0000.0001) %MON exf_runoff_mean              =   1.5884794052194E-09
(PID.TID 0000.0001) %MON exf_runoff_sd                =   5.3901957917178E-09
(PID.TID 0000.0001) %MON exf_runoff_del2              =   2.2191214937507E-12
(PID.TID 0000.0001) // =======================================================
(PID.TID 0000.0001) // End MONITOR EXF statistics
(PID.TID 0000.0001) // =======================================================
 cg2d: Sum(rhs),rhsMax =   6.61936246572269E+02  4.75802039754198E-02
(PID.TID 0000.0001)      cg2d_init_res =   5.67473005049545E-01
(PID.TID 0000.0001)      cg2d_iters(min,last) =      -1     308
(PID.TID 0000.0001)      cg2d_last_res =   6.48955379603441E-12
(PID.TID 0000.0001) // =======================================================
(PID.TID 0000.0001) // Begin MONITOR dynamic field statistics
(PID.TID 0000.0001) // =======================================================
(PID.TID 0000.0001) %MON time_tsnumber                =                    11
(PID.TID 0000.0001) %MON time_secondsf                =   2.6400000000000E+03
(PID.TID 0000.0001) %MON dynstat_eta_max              =   9.1997859312830E-01
(PID.TID 0000.0001) %MON dynstat_eta_min              =  -6.7435003892366E-01
(PID.TID 0000.0001) %MON dynstat_eta_mean             =  -2.2510532855476E-02
(PID.TID 0000.0001) %MON dynstat_eta_sd               =   1.5555975979311E-01
(PID.TID 0000.0001) %MON dynstat_eta_del2             =   1.2292285598711E-06
(PID.TID 0000.0001) %MON dynstat_uvel_max             =   8.8997597765132E-01
(PID.TID 0000.0001) %MON dynstat_uvel_min             =  -3.2342155968878E-01
(PID.TID 0000.0001) %MON dynstat_uvel_mean            =  -2.1097525881225E-03
(PID.TID 0000.0001) %MON dynstat_uvel_sd              =   1.7198079004859E-02
(PID.TID 0000.0001) %MON dynstat_uvel_del2            =   1.9499726147469E-07
(PID.TID 0000.0001) %MON dynstat_vvel_max             =   8.6277668523638E-01
(PID.TID 0000.0001) %MON dynstat_vvel_min             =  -6.4129662902246E-01
(PID.TID 0000.0001) %MON dynstat_vvel_mean            =  -5.9533695496942E-03
(PID.TID 0000.0001) %MON dynstat_vvel_sd              =   1.6423488167280E-02
(PID.TID 0000.0001) %MON dynstat_vvel_del2            =   1.5926694691504E-07
(PID.TID 0000.0001) %MON dynstat_wvel_max             =   6.4300118537239E-03
(PID.TID 0000.0001) %MON dynstat_wvel_min             =  -5.6040322010595E-03
(PID.TID 0000.0001) %MON dynstat_wvel_mean            =  -3.4329215614647E-06
(PID.TID 0000.0001) %MON dynstat_wvel_sd              =   1.2370227104530E-04
(PID.TID 0000.0001) %MON dynstat_wvel_del2            =   1.3306717177028E-08
(PID.TID 0000.0001) %MON dynstat_theta_max            =   2.5562107264421E+01
(PID.TID 0000.0001) %MON dynstat_theta_min            =   1.4441539475514E+00
(PID.TID 0000.0001) %MON dynstat_theta_mean           =   5.5933998994785E+00
(PID.TID 0000.0001) %MON dynstat_theta_sd             =   4.7972926135616E+00
(PID.TID 0000.0001) %MON dynstat_theta_del2           =   1.5307091542758E-06
(PID.TID 0000.0001) %MON dynstat_salt_max             =   3.8096072176719E+01
(PID.TID 0000.0001) %MON dynstat_salt_min             =   3.0534045015403E+01
(PID.TID 0000.0001) %MON dynstat_salt_mean            =   3.5189816341983E+01
(PID.TID 0000.0001) %MON dynstat_salt_sd              =   4.6942446405843E-01
(PID.TID 0000.0001) %MON dynstat_salt_del2            =   2.9958451595166E-07
(PID.TID 0000.0001) %MON forcing_qnet_max             =   6.8324973226335E+02
(PID.TID 0000.0001) %MON forcing_qnet_min             =  -3.1636013839705E+02
(PID.TID 0000.0001) %MON forcing_qnet_mean            =   2.0174620409307E+02
(PID.TID 0000.0001) %MON forcing_qnet_sd              =   1.2231022491351E+02
(PID.TID 0000.0001) %MON forcing_qnet_del2            =   9.7809495262857E-04
(PID.TID 0000.0001) %MON forcing_qsw_max              =   0.0000000000000E+00
(PID.TID 0000.0001) %MON forcing_qsw_min              =   0.0000000000000E+00
(PID.TID 0000.0001) %MON forcing_qsw_mean             =   0.0000000000000E+00
(PID.TID 0000.0001) %MON forcing_qsw_sd               =   0.0000000000000E+00
(PID.TID 0000.0001) %MON forcing_qsw_del2             =   0.0000000000000E+00
(PID.TID 0000.0001) %MON forcing_empmr_max            =   1.6769106112777E-04
(PID.TID 0000.0001) %MON forcing_empmr_min            =  -1.7523921067844E-03
(PID.TID 0000.0001) %MON forcing_empmr_mean           =   7.1873907504309E-06
(PID.TID 0000.0001) %MON forcing_empmr_sd             =   1.3263368419447E-04
(PID.TID 0000.0001) %MON forcing_empmr_del2           =   2.9860675157294E-09
(PID.TID 0000.0001) %MON forcing_fu_max               =   8.0916379541981E-01
(PID.TID 0000.0001) %MON forcing_fu_min               =  -3.9383173079856E-01
(PID.TID 0000.0001) %MON forcing_fu_mean              =   6.3653688051951E-02
(PID.TID 0000.0001) %MON forcing_fu_sd                =   1.5347845799113E-01
(PID.TID 0000.0001) %MON forcing_fu_del2              =   3.0510993942601E-07
(PID.TID 0000.0001) %MON forcing_fv_max               =   4.1413080654416E-01
(PID.TID 0000.0001) %MON forcing_fv_min               =  -5.6717889858350E-01
(PID.TID 0000.0001) %MON forcing_fv_mean              =   1.0581238779421E-02
(PID.TID 0000.0001) %MON forcing_fv_sd                =   1.0101917492422E-01
(PID.TID 0000.0001) %MON forcing_fv_del2              =   2.4525077579825E-07
(PID.TID 0000.0001) %MON trAdv_CFL_u_max              =   5.1737565657014E-02
(PID.TID 0000.0001) %MON trAdv_CFL_v_max              =   5.4690174614839E-02
(PID.TID 0000.0001) %MON trAdv_CFL_w_max              =   2.6843462481840E-01
(PID.TID 0000.0001) %MON advcfl_uvel_max              =   5.1737564891649E-02
(PID.TID 0000.0001) %MON advcfl_vvel_max              =   5.4709284686378E-02
(PID.TID 0000.0001) %MON advcfl_wvel_max              =   2.6843462481840E-01
(PID.TID 0000.0001) %MON advcfl_W_hf_max              =   2.6843462481840E-01
(PID.TID 0000.0001) %MON pe_b_mean                    =  -5.2505646748131E-04
(PID.TID 0000.0001) %MON ke_max                       =   4.5913423840954E-01
(PID.TID 0000.0001) %MON ke_mean                      =   3.0036577402080E-04
(PID.TID 0000.0001) %MON ke_vol                       =   4.5818637279721E+16
(PID.TID 0000.0001) %MON vort_r_min                   =  -3.2434444659366E-04
(PID.TID 0000.0001) %MON vort_r_max                   =   3.8883546002611E-04
(PID.TID 0000.0001) %MON vort_a_mean                  =   8.2147591427326E-05
(PID.TID 0000.0001) %MON vort_a_sd                    =   9.7078112789218E-06
(PID.TID 0000.0001) %MON vort_p_mean                  =   8.4848811695358E-05
(PID.TID 0000.0001) %MON vort_p_sd                    =   3.5003858692908E-05
(PID.TID 0000.0001) %MON surfExpan_theta_mean         =  -2.0840839941384E-06
(PID.TID 0000.0001) %MON surfExpan_salt_mean          =  -1.0423627853004E-04
(PID.TID 0000.0001) // =======================================================
(PID.TID 0000.0001) // End MONITOR dynamic field statistics
(PID.TID 0000.0001) // =======================================================
(PID.TID 0000.0001) // =======================================================
(PID.TID 0000.0001) // Begin OBCS MONITOR field statistics
(PID.TID 0000.0001) // =======================================================
(PID.TID 0000.0001) %MON obc_N_vVel_max               =   7.4178521434484E-02
(PID.TID 0000.0001) %MON obc_N_vVel_min               =  -5.9957755743827E-01
(PID.TID 0000.0001) %MON obc_N_vVel_mean              =  -6.9566906783681E-03
(PID.TID 0000.0001) %MON obc_N_vVel_sd                =   1.6836593360859E-02
(PID.TID 0000.0001) %MON obc_N_vVel_Int               =  -9.9585614641517E+07
(PID.TID 0000.0001) %MON obc_S_vVel_max               =   6.4680840988697E-01
(PID.TID 0000.0001) %MON obc_S_vVel_min               =  -1.0676463720666E-01
(PID.TID 0000.0001) %MON obc_S_vVel_mean              =  -4.4610877141856E-03
(PID.TID 0000.0001) %MON obc_S_vVel_sd                =   1.9981104762382E-02
(PID.TID 0000.0001) %MON obc_S_vVel_Int               =  -1.3580844571506E+08
(PID.TID 0000.0001) %MON obc_N_theta_max              =   1.6146072846277E+01
(PID.TID 0000.0001) %MON obc_N_theta_min              =   1.6874200089403E+00
(PID.TID 0000.0001) %MON obc_N_theta_mean             =   5.2225855502123E+00
(PID.TID 0000.0001) %MON obc_N_theta_sd               =   3.6303814576158E+00
(PID.TID 0000.0001) %MON obc_S_theta_max              =   2.5392426340694E+01
(PID.TID 0000.0001) %MON obc_S_theta_min              =   1.5161808230250E+00
(PID.TID 0000.0001) %MON obc_S_theta_mean             =   5.4082427809832E+00
(PID.TID 0000.0001) %MON obc_S_theta_sd               =   5.1183140868641E+00
(PID.TID 0000.0001) %MON obc_N_salt_max               =   3.6395891237531E+01
(PID.TID 0000.0001) %MON obc_N_salt_min               =   3.0617652194793E+01
(PID.TID 0000.0001) %MON obc_N_salt_mean              =   3.5063772508122E+01
(PID.TID 0000.0001) %MON obc_N_salt_sd                =   3.9119826402269E-01
(PID.TID 0000.0001) %MON obc_S_salt_max               =   3.7332420755221E+01
(PID.TID 0000.0001) %MON obc_S_salt_min               =   3.4852181409609E+01
(PID.TID 0000.0001) %MON obc_S_salt_mean              =   3.5186251145274E+01
(PID.TID 0000.0001) %MON obc_S_salt_sd                =   5.1365418588595E-01
(PID.TID 0000.0001) // =======================================================
(PID.TID 0000.0001) // End OBCS MONITOR field statistics
(PID.TID 0000.0001) // =======================================================
(PID.TID 0000.0001) // =======================================================
(PID.TID 0000.0001) // Begin MONITOR EXF statistics
(PID.TID 0000.0001) // =======================================================
(PID.TID 0000.0001) %MON exf_tsnumber                 =                    11
(PID.TID 0000.0001) %MON exf_time_sec                 =   2.6400000000000E+03
(PID.TID 0000.0001) %MON exf_ustress_max              =   8.2165160249721E-01
(PID.TID 0000.0001) %MON exf_ustress_min              =  -3.9158112189025E-01
(PID.TID 0000.0001) %MON exf_ustress_mean             =   6.3759753613674E-02
(PID.TID 0000.0001) %MON exf_ustress_sd               =   1.5361831883688E-01
(PID.TID 0000.0001) %MON exf_ustress_del2             =   3.3758858764557E-07
(PID.TID 0000.0001) %MON exf_vstress_max              =   4.1668670201557E-01
(PID.TID 0000.0001) %MON exf_vstress_min              =  -5.6441347718439E-01
(PID.TID 0000.0001) %MON exf_vstress_mean             =   1.0660164642714E-02
(PID.TID 0000.0001) %MON exf_vstress_sd               =   1.0108487065258E-01
(PID.TID 0000.0001) %MON exf_vstress_del2             =   2.8312285628387E-07
(PID.TID 0000.0001) %MON exf_hflux_max                =   6.7577172754938E+02
(PID.TID 0000.0001) %MON exf_hflux_min                =  -3.1362421959364E+02
(PID.TID 0000.0001) %MON exf_hflux_mean               =   2.0066646133242E+02
(PID.TID 0000.0001) %MON exf_hflux_sd                 =   1.2112199917400E+02
(PID.TID 0000.0001) %MON exf_hflux_del2               =   9.2232751367619E-02
(PID.TID 0000.0001) %MON exf_sflux_max                =   1.6712909049271E-07
(PID.TID 0000.0001) %MON exf_sflux_min                =  -1.7712360240888E-06
(PID.TID 0000.0001) %MON exf_sflux_mean               =   6.9669882191888E-09
(PID.TID 0000.0001) %MON exf_sflux_sd                 =   1.3237945455024E-07
(PID.TID 0000.0001) %MON exf_sflux_del2               =   5.2768691683302E-11
(PID.TID 0000.0001) %MON exf_uwind_max                =   1.9471230633925E+01
(PID.TID 0000.0001) %MON exf_uwind_min                =  -1.4803208956651E+01
(PID.TID 0000.0001) %MON exf_uwind_mean               =   2.5120971019489E+00
(PID.TID 0000.0001) %MON exf_uwind_sd                 =   6.6582496910851E+00
(PID.TID 0000.0001) %MON exf_uwind_del2               =   2.8406488651898E-03
(PID.TID 0000.0001) %MON exf_vwind_max                =   1.4506339437792E+01
(PID.TID 0000.0001) %MON exf_vwind_min                =  -1.2796429442545E+01
(PID.TID 0000.0001) %MON exf_vwind_mean               =   8.5594202572870E-01
(PID.TID 0000.0001) %MON exf_vwind_sd                 =   5.1806024853550E+00
(PID.TID 0000.0001) %MON exf_vwind_del2               =   2.0885870552292E-03
(PID.TID 0000.0001) %MON exf_wspeed_max               =   2.0179285428609E+01
(PID.TID 0000.0001) %MON exf_wspeed_min               =   5.6362590656991E-03
(PID.TID 0000.0001) %MON exf_wspeed_mean              =   7.7095109252612E+00
(PID.TID 0000.0001) %MON exf_wspeed_sd                =   4.3333175459927E+00
(PID.TID 0000.0001) %MON exf_wspeed_del2              =   3.5255320267286E-03
(PID.TID 0000.0001) %MON exf_atemp_max                =   2.9815365399267E+02
(PID.TID 0000.0001) %MON exf_atemp_min                =   2.7427014538059E+02
(PID.TID 0000.0001) %MON exf_atemp_mean               =   2.9066781352534E+02
(PID.TID 0000.0001) %MON exf_atemp_sd                 =   3.9458015647656E+00
(PID.TID 0000.0001) %MON exf_atemp_del2               =   6.8363292356366E-03
(PID.TID 0000.0001) %MON exf_aqh_max                  =   1.6745626223720E-02
(PID.TID 0000.0001) %MON exf_aqh_min                  =   2.7148212570767E-03
(PID.TID 0000.0001) %MON exf_aqh_mean                 =   9.4157028205886E-03
(PID.TID 0000.0001) %MON exf_aqh_sd                   =   2.8761932334855E-03
(PID.TID 0000.0001) %MON exf_aqh_del2                 =   3.7480524478943E-06
(PID.TID 0000.0001) %MON exf_lwflux_max               =   1.6612477882940E+02
(PID.TID 0000.0001) %MON exf_lwflux_min               =  -7.7502736455440E+00
(PID.TID 0000.0001) %MON exf_lwflux_mean              =   6.0708656340937E+01
(PID.TID 0000.0001) %MON exf_lwflux_sd                =   2.6639372765128E+01
(PID.TID 0000.0001) %MON exf_lwflux_del2              =   2.5501718505023E-02
(PID.TID 0000.0001) %MON exf_evap_max                 =   1.9112904822529E-07
(PID.TID 0000.0001) %MON exf_evap_min                 =  -1.0213182293992E-07
(PID.TID 0000.0001) %MON exf_evap_mean                =   4.9642316655064E-08
(PID.TID 0000.0001) %MON exf_evap_sd                  =   3.8626482279338E-08
(PID.TID 0000.0001) %MON exf_evap_del2                =   2.4869414682856E-11
(PID.TID 0000.0001) %MON exf_precip_max               =   1.9530076773174E-06
(PID.TID 0000.0001) %MON exf_precip_min               =   0.0000000000000E+00
(PID.TID 0000.0001) %MON exf_precip_mean              =   4.1086849030656E-08
(PID.TID 0000.0001) %MON exf_precip_sd                =   1.3784055398265E-07
(PID.TID 0000.0001) %MON exf_precip_del2              =   5.7829315018580E-11
(PID.TID 0000.0001) %MON exf_swflux_max               =   0.0000000000000E+00
(PID.TID 0000.0001) %MON exf_swflux_min               =   0.0000000000000E+00
(PID.TID 0000.0001) %MON exf_swflux_mean              =   0.0000000000000E+00
(PID.TID 0000.0001) %MON exf_swflux_sd                =   0.0000000000000E+00
(PID.TID 0000.0001) %MON exf_swflux_del2              =   0.0000000000000E+00
(PID.TID 0000.0001) %MON exf_swdown_max               =   0.0000000000000E+00
(PID.TID 0000.0001) %MON exf_swdown_min               =   0.0000000000000E+00
(PID.TID 0000.0001) %MON exf_swdown_mean              =   0.0000000000000E+00
(PID.TID 0000.0001) %MON exf_swdown_sd                =   0.0000000000000E+00
(PID.TID 0000.0001) %MON exf_swdown_del2              =   0.0000000000000E+00
(PID.TID 0000.0001) %MON exf_lwdown_max               =   4.1834379762812E+02
(PID.TID 0000.0001) %MON exf_lwdown_min               =   2.2446257076056E+02
(PID.TID 0000.0001) %MON exf_lwdown_mean              =   3.4966587941356E+02
(PID.TID 0000.0001) %MON exf_lwdown_sd                =   3.1662579062329E+01
(PID.TID 0000.0001) %MON exf_lwdown_del2              =   1.3542704062714E-01
(PID.TID 0000.0001) %MON exf_apressure_max            =   1.0280887953443E+05
(PID.TID 0000.0001) %MON exf_apressure_min            =   1.0001557376642E+05
(PID.TID 0000.0001) %MON exf_apressure_mean           =   1.0216762915247E+05
(PID.TID 0000.0001) %MON exf_apressure_sd             =   4.9875562730687E+02
(PID.TID 0000.0001) %MON exf_apressure_del2           =   3.9520638211190E+01
(PID.TID 0000.0001) %MON exf_runoff_max               =   4.4374791284855E-08
(PID.TID 0000.0001) %MON exf_runoff_min               =   0.0000000000000E+00
(PID.TID 0000.0001) %MON exf_runoff_mean              =   1.5884794052194E-09
(PID.TID 0000.0001) %MON exf_runoff_sd                =   5.3901957917178E-09
(PID.TID 0000.0001) %MON exf_runoff_del2              =   2.2191214937507E-12
(PID.TID 0000.0001) // =======================================================
(PID.TID 0000.0001) // End MONITOR EXF statistics
(PID.TID 0000.0001) // =======================================================
 cg2d: Sum(rhs),rhsMax =   6.76843700356362E+02  5.47013989667336E-02
(PID.TID 0000.0001)      cg2d_init_res =   5.46554809614276E-01
(PID.TID 0000.0001)      cg2d_iters(min,last) =      -1     307
(PID.TID 0000.0001)      cg2d_last_res =   6.57975627269330E-12
(PID.TID 0000.0001) // =======================================================
(PID.TID 0000.0001) // Begin MONITOR dynamic field statistics
(PID.TID 0000.0001) // =======================================================
(PID.TID 0000.0001) %MON time_tsnumber                =                    12
(PID.TID 0000.0001) %MON time_secondsf                =   2.8800000000000E+03
(PID.TID 0000.0001) %MON dynstat_eta_max              =   8.7281200399052E-01
(PID.TID 0000.0001) %MON dynstat_eta_min              =  -7.4120524346350E-01
(PID.TID 0000.0001) %MON dynstat_eta_mean             =  -2.3017492143377E-02
(PID.TID 0000.0001) %MON dynstat_eta_sd               =   1.6194551339853E-01
(PID.TID 0000.0001) %MON dynstat_eta_del2             =   1.2145385299382E-06
(PID.TID 0000.0001) %MON dynstat_uvel_max             =   8.6655916637231E-01
(PID.TID 0000.0001) %MON dynstat_uvel_min             =  -3.3160797419822E-01
(PID.TID 0000.0001) %MON dynstat_uvel_mean            =  -2.3767631390750E-03
(PID.TID 0000.0001) %MON dynstat_uvel_sd              =   1.7185465653478E-02
(PID.TID 0000.0001) %MON dynstat_uvel_del2            =   2.0093095158969E-07
(PID.TID 0000.0001) %MON dynstat_vvel_max             =   8.7127887589290E-01
(PID.TID 0000.0001) %MON dynstat_vvel_min             =  -6.4160367507927E-01
(PID.TID 0000.0001) %MON dynstat_vvel_mean            =  -6.2365468640159E-03
(PID.TID 0000.0001) %MON dynstat_vvel_sd              =   1.6481262073671E-02
(PID.TID 0000.0001) %MON dynstat_vvel_del2            =   1.6441354190497E-07
(PID.TID 0000.0001) %MON dynstat_wvel_max             =   6.6103579597476E-03
(PID.TID 0000.0001) %MON dynstat_wvel_min             =  -5.6587212569320E-03
(PID.TID 0000.0001) %MON dynstat_wvel_mean            =  -2.7650352001751E-06
(PID.TID 0000.0001) %MON dynstat_wvel_sd              =   1.2696393094374E-04
(PID.TID 0000.0001) %MON dynstat_wvel_del2            =   1.3523245576708E-08
(PID.TID 0000.0001) %MON dynstat_theta_max            =   2.5562657534375E+01
(PID.TID 0000.0001) %MON dynstat_theta_min            =   1.4441539514277E+00
(PID.TID 0000.0001) %MON dynstat_theta_mean           =   5.5933957929311E+00
(PID.TID 0000.0001) %MON dynstat_theta_sd             =   4.7972791258445E+00
(PID.TID 0000.0001) %MON dynstat_theta_del2           =   1.5376127698190E-06
(PID.TID 0000.0001) %MON dynstat_salt_max             =   3.8096048300528E+01
(PID.TID 0000.0001) %MON dynstat_salt_min             =   3.0534372706473E+01
(PID.TID 0000.0001) %MON dynstat_salt_mean            =   3.5189815650748E+01
(PID.TID 0000.0001) %MON dynstat_salt_sd              =   4.6942526843714E-01
(PID.TID 0000.0001) %MON dynstat_salt_del2            =   3.0562620415659E-07
(PID.TID 0000.0001) %MON forcing_qnet_max             =   6.8108867134076E+02
(PID.TID 0000.0001) %MON forcing_qnet_min             =  -3.1857203879693E+02
(PID.TID 0000.0001) %MON forcing_qnet_mean            =   2.0180760099447E+02
(PID.TID 0000.0001) %MON forcing_qnet_sd              =   1.2234227422635E+02
(PID.TID 0000.0001) %MON forcing_qnet_del2            =   9.7772899365949E-04
(PID.TID 0000.0001) %MON forcing_qsw_max              =   0.0000000000000E+00
(PID.TID 0000.0001) %MON forcing_qsw_min              =   0.0000000000000E+00
(PID.TID 0000.0001) %MON forcing_qsw_mean             =   0.0000000000000E+00
(PID.TID 0000.0001) %MON forcing_qsw_sd               =   0.0000000000000E+00
(PID.TID 0000.0001) %MON forcing_qsw_del2             =   0.0000000000000E+00
(PID.TID 0000.0001) %MON forcing_empmr_max            =   1.6712909049271E-04
(PID.TID 0000.0001) %MON forcing_empmr_min            =  -1.7712360240888E-03
(PID.TID 0000.0001) %MON forcing_empmr_mean           =   6.9669882191888E-06
(PID.TID 0000.0001) %MON forcing_empmr_sd             =   1.3237945455024E-04
(PID.TID 0000.0001) %MON forcing_empmr_del2           =   2.8415092646920E-09
(PID.TID 0000.0001) %MON forcing_fu_max               =   8.2164190240547E-01
(PID.TID 0000.0001) %MON forcing_fu_min               =  -3.9157009829065E-01
(PID.TID 0000.0001) %MON forcing_fu_mean              =   6.3820643433763E-02
(PID.TID 0000.0001) %MON forcing_fu_sd                =   1.5367737137690E-01
(PID.TID 0000.0001) %MON forcing_fu_del2              =   3.1801853683659E-07
(PID.TID 0000.0001) %MON forcing_fv_max               =   4.1661656005094E-01
(PID.TID 0000.0001) %MON forcing_fv_min               =  -5.6870310924066E-01
(PID.TID 0000.0001) %MON forcing_fv_mean              =   1.0643521676691E-02
(PID.TID 0000.0001) %MON forcing_fv_sd                =   1.0121512848621E-01
(PID.TID 0000.0001) %MON forcing_fv_del2              =   2.5763822964719E-07
(PID.TID 0000.0001) %MON trAdv_CFL_u_max              =   5.0376260586485E-02
(PID.TID 0000.0001) %MON trAdv_CFL_v_max              =   5.5229116266335E-02
(PID.TID 0000.0001) %MON trAdv_CFL_w_max              =   2.6119363691506E-01
(PID.TID 0000.0001) %MON advcfl_uvel_max              =   5.0376259841258E-02
(PID.TID 0000.0001) %MON advcfl_vvel_max              =   5.5248414657140E-02
(PID.TID 0000.0001) %MON advcfl_wvel_max              =   2.6119363691506E-01
(PID.TID 0000.0001) %MON advcfl_W_hf_max              =   2.6119363691506E-01
(PID.TID 0000.0001) %MON pe_b_mean                    =  -5.3512291426970E-04
(PID.TID 0000.0001) %MON ke_max                       =   4.5985858470347E-01
(PID.TID 0000.0001) %MON ke_mean                      =   3.0340902943734E-04
(PID.TID 0000.0001) %MON ke_vol                       =   4.5818637279721E+16
(PID.TID 0000.0001) %MON vort_r_min                   =  -3.2703110281327E-04
(PID.TID 0000.0001) %MON vort_r_max                   =   3.8466968834023E-04
(PID.TID 0000.0001) %MON vort_a_mean                  =   8.2147591696859E-05
(PID.TID 0000.0001) %MON vort_a_sd                    =   9.7080715283570E-06
(PID.TID 0000.0001) %MON vort_p_mean                  =   8.4848811973754E-05
(PID.TID 0000.0001) %MON vort_p_sd                    =   3.5004899419810E-05
(PID.TID 0000.0001) %MON surfExpan_theta_mean         =   2.0573162649140E-05
(PID.TID 0000.0001) %MON surfExpan_salt_mean          =  -6.4789919097373E-05
(PID.TID 0000.0001) // =======================================================
(PID.TID 0000.0001) // End MONITOR dynamic field statistics
(PID.TID 0000.0001) // =======================================================
(PID.TID 0000.0001) // =======================================================
(PID.TID 0000.0001) // Begin OBCS MONITOR field statistics
(PID.TID 0000.0001) // =======================================================
(PID.TID 0000.0001) %MON obc_N_vVel_max               =   7.4112130853829E-02
(PID.TID 0000.0001) %MON obc_N_vVel_min               =  -5.9667766800702E-01
(PID.TID 0000.0001) %MON obc_N_vVel_mean              =  -7.0249107828771E-03
(PID.TID 0000.0001) %MON obc_N_vVel_sd                =   1.6836114122853E-02
(PID.TID 0000.0001) %MON obc_N_vVel_Int               =  -1.0056219119962E+08
(PID.TID 0000.0001) %MON obc_S_vVel_max               =   6.4757549410195E-01
(PID.TID 0000.0001) %MON obc_S_vVel_min               =  -1.0665829623507E-01
(PID.TID 0000.0001) %MON obc_S_vVel_mean              =  -4.0874758574692E-03
(PID.TID 0000.0001) %MON obc_S_vVel_sd                =   1.9960220714621E-02
(PID.TID 0000.0001) %MON obc_S_vVel_Int               =  -1.2443461744442E+08
(PID.TID 0000.0001) %MON obc_N_theta_max              =   1.6146078437685E+01
(PID.TID 0000.0001) %MON obc_N_theta_min              =   1.6873513347396E+00
(PID.TID 0000.0001) %MON obc_N_theta_mean             =   5.2225836239236E+00
(PID.TID 0000.0001) %MON obc_N_theta_sd               =   3.6303776730129E+00
(PID.TID 0000.0001) %MON obc_S_theta_max              =   2.5392414063513E+01
(PID.TID 0000.0001) %MON obc_S_theta_min              =   1.5161808013100E+00
(PID.TID 0000.0001) %MON obc_S_theta_mean             =   5.4082418598353E+00
(PID.TID 0000.0001) %MON obc_S_theta_sd               =   5.1183108915447E+00
(PID.TID 0000.0001) %MON obc_N_salt_max               =   3.6395892580987E+01
(PID.TID 0000.0001) %MON obc_N_salt_min               =   3.0617668758395E+01
(PID.TID 0000.0001) %MON obc_N_salt_mean              =   3.5063772578474E+01
(PID.TID 0000.0001) %MON obc_N_salt_sd                =   3.9119789216293E-01
(PID.TID 0000.0001) %MON obc_S_salt_max               =   3.7332411376097E+01
(PID.TID 0000.0001) %MON obc_S_salt_min               =   3.4852181407868E+01
(PID.TID 0000.0001) %MON obc_S_salt_mean              =   3.5186251185770E+01
(PID.TID 0000.0001) %MON obc_S_salt_sd                =   5.1365427200491E-01
(PID.TID 0000.0001) // =======================================================
(PID.TID 0000.0001) // End OBCS MONITOR field statistics
(PID.TID 0000.0001) // =======================================================
(PID.TID 0000.0001) // =======================================================
(PID.TID 0000.0001) // Begin MONITOR EXF statistics
(PID.TID 0000.0001) // =======================================================
(PID.TID 0000.0001) %MON exf_tsnumber                 =                    12
(PID.TID 0000.0001) %MON exf_time_sec                 =   2.8800000000000E+03
(PID.TID 0000.0001) %MON exf_ustress_max              =   8.3597896813355E-01
(PID.TID 0000.0001) %MON exf_ustress_min              =  -3.8943583318681E-01
(PID.TID 0000.0001) %MON exf_ustress_mean             =   6.3951296081677E-02
(PID.TID 0000.0001) %MON exf_ustress_sd               =   1.5389070238916E-01
(PID.TID 0000.0001) %MON exf_ustress_del2             =   3.5349915819544E-07
(PID.TID 0000.0001) %MON exf_vstress_max              =   4.2016292273783E-01
(PID.TID 0000.0001) %MON exf_vstress_min              =  -5.6590595626152E-01
(PID.TID 0000.0001) %MON exf_vstress_mean             =   1.0724604130404E-02
(PID.TID 0000.0001) %MON exf_vstress_sd               =   1.0134413902014E-01
(PID.TID 0000.0001) %MON exf_vstress_del2             =   2.9842274104609E-07
(PID.TID 0000.0001) %MON exf_hflux_max                =   6.7295360269311E+02
(PID.TID 0000.0001) %MON exf_hflux_min                =  -3.1591702524766E+02
(PID.TID 0000.0001) %MON exf_hflux_mean               =   2.0076060805157E+02
(PID.TID 0000.0001) %MON exf_hflux_sd                 =   1.2120981141806E+02
(PID.TID 0000.0001) %MON exf_hflux_del2               =   9.2289564616599E-02
(PID.TID 0000.0001) %MON exf_sflux_max                =   1.6657167441535E-07
(PID.TID 0000.0001) %MON exf_sflux_min                =  -1.7900816652491E-06
(PID.TID 0000.0001) %MON exf_sflux_mean               =   6.7528892740943E-09
(PID.TID 0000.0001) %MON exf_sflux_sd                 =   1.3243455357407E-07
(PID.TID 0000.0001) %MON exf_sflux_del2               =   5.2668515581274E-11
(PID.TID 0000.0001) %MON exf_uwind_max                =   1.9596707635897E+01
(PID.TID 0000.0001) %MON exf_uwind_min                =  -1.4780305352291E+01
(PID.TID 0000.0001) %MON exf_uwind_mean               =   2.5134904667537E+00
(PID.TID 0000.0001) %MON exf_uwind_sd                 =   6.6603300524962E+00
(PID.TID 0000.0001) %MON exf_uwind_del2               =   2.8416021207299E-03
(PID.TID 0000.0001) %MON exf_vwind_max                =   1.4573845678627E+01
(PID.TID 0000.0001) %MON exf_vwind_min                =  -1.2816136646741E+01
(PID.TID 0000.0001) %MON exf_vwind_mean               =   8.5759507803895E-01
(PID.TID 0000.0001) %MON exf_vwind_sd                 =   5.1841909654470E+00
(PID.TID 0000.0001) %MON exf_vwind_del2               =   2.0904432797674E-03
(PID.TID 0000.0001) %MON exf_wspeed_max               =   2.0171127791087E+01
(PID.TID 0000.0001) %MON exf_wspeed_min               =   3.2242126675467E-03
(PID.TID 0000.0001) %MON exf_wspeed_mean              =   7.7117498143117E+00
(PID.TID 0000.0001) %MON exf_wspeed_sd                =   4.3379546816682E+00
(PID.TID 0000.0001) %MON exf_wspeed_del2              =   3.5273868208713E-03
(PID.TID 0000.0001) %MON exf_atemp_max                =   2.9815145670426E+02
(PID.TID 0000.0001) %MON exf_atemp_min                =   2.7424454417195E+02
(PID.TID 0000.0001) %MON exf_atemp_mean               =   2.9066469231915E+02
(PID.TID 0000.0001) %MON exf_atemp_sd                 =   3.9466897201915E+00
(PID.TID 0000.0001) %MON exf_atemp_del2               =   6.8351870032580E-03
(PID.TID 0000.0001) %MON exf_aqh_max                  =   1.6738639922846E-02
(PID.TID 0000.0001) %MON exf_aqh_min                  =   2.7125265593127E-03
(PID.TID 0000.0001) %MON exf_aqh_mean                 =   9.4145146677745E-03
(PID.TID 0000.0001) %MON exf_aqh_sd                   =   2.8774129248554E-03
(PID.TID 0000.0001) %MON exf_aqh_del2                 =   3.7476715225364E-06
(PID.TID 0000.0001) %MON exf_lwflux_max               =   1.6643588032986E+02
(PID.TID 0000.0001) %MON exf_lwflux_min               =  -6.6786573007216E+00
(PID.TID 0000.0001) %MON exf_lwflux_mean              =   6.0692313682206E+01
(PID.TID 0000.0001) %MON exf_lwflux_sd                =   2.6598326788851E+01
(PID.TID 0000.0001) %MON exf_lwflux_del2              =   2.5487058846924E-02
(PID.TID 0000.0001) %MON exf_evap_max                 =   1.9141889208560E-07
(PID.TID 0000.0001) %MON exf_evap_min                 =  -1.0286518957751E-07
(PID.TID 0000.0001) %MON exf_evap_mean                =   4.9671352982197E-08
(PID.TID 0000.0001) %MON exf_evap_sd                  =   3.8643812396403E-08
(PID.TID 0000.0001) %MON exf_evap_del2                =   2.4885290377587E-11
(PID.TID 0000.0001) %MON exf_precip_max               =   1.9724582042779E-06
(PID.TID 0000.0001) %MON exf_precip_min               =   0.0000000000000E+00
(PID.TID 0000.0001) %MON exf_precip_mean              =   4.1329984302883E-08
(PID.TID 0000.0001) %MON exf_precip_sd                =   1.3800384791430E-07
(PID.TID 0000.0001) %MON exf_precip_del2              =   5.7808090136640E-11
(PID.TID 0000.0001) %MON exf_swflux_max               =   0.0000000000000E+00
(PID.TID 0000.0001) %MON exf_swflux_min               =   0.0000000000000E+00
(PID.TID 0000.0001) %MON exf_swflux_mean              =   0.0000000000000E+00
(PID.TID 0000.0001) %MON exf_swflux_sd                =   0.0000000000000E+00
(PID.TID 0000.0001) %MON exf_swflux_del2              =   0.0000000000000E+00
(PID.TID 0000.0001) %MON exf_swdown_max               =   0.0000000000000E+00
(PID.TID 0000.0001) %MON exf_swdown_min               =   0.0000000000000E+00
(PID.TID 0000.0001) %MON exf_swdown_mean              =   0.0000000000000E+00
(PID.TID 0000.0001) %MON exf_swdown_sd                =   0.0000000000000E+00
(PID.TID 0000.0001) %MON exf_swdown_del2              =   0.0000000000000E+00
(PID.TID 0000.0001) %MON exf_lwdown_max               =   4.1837492023739E+02
(PID.TID 0000.0001) %MON exf_lwdown_min               =   2.2467589834697E+02
(PID.TID 0000.0001) %MON exf_lwdown_mean              =   3.4968037056656E+02
(PID.TID 0000.0001) %MON exf_lwdown_sd                =   3.1587078891321E+01
(PID.TID 0000.0001) %MON exf_lwdown_del2              =   1.3543115719897E-01
(PID.TID 0000.0001) %MON exf_apressure_max            =   1.0281199025705E+05
(PID.TID 0000.0001) %MON exf_apressure_min            =   1.0001627344352E+05
(PID.TID 0000.0001) %MON exf_apressure_mean           =   1.0216840645902E+05
(PID.TID 0000.0001) %MON exf_apressure_sd             =   4.9879168551480E+02
(PID.TID 0000.0001) %MON exf_apressure_del2           =   3.9520945946583E+01
(PID.TID 0000.0001) %MON exf_runoff_max               =   4.4374791284855E-08
(PID.TID 0000.0001) %MON exf_runoff_min               =   0.0000000000000E+00
(PID.TID 0000.0001) %MON exf_runoff_mean              =   1.5884794052194E-09
(PID.TID 0000.0001) %MON exf_runoff_sd                =   5.3901957917178E-09
(PID.TID 0000.0001) %MON exf_runoff_del2              =   2.2191214937507E-12
(PID.TID 0000.0001) // =======================================================
(PID.TID 0000.0001) // End MONITOR EXF statistics
(PID.TID 0000.0001) // =======================================================
 cg2d: Sum(rhs),rhsMax =   6.84016231134851E+02  5.63636250134308E-02
(PID.TID 0000.0001)      cg2d_init_res =   5.33101473424378E-01
(PID.TID 0000.0001)      cg2d_iters(min,last) =      -1     306
(PID.TID 0000.0001)      cg2d_last_res =   6.68028779543722E-12
(PID.TID 0000.0001) // =======================================================
(PID.TID 0000.0001) // Begin MONITOR dynamic field statistics
(PID.TID 0000.0001) // =======================================================
(PID.TID 0000.0001) %MON time_tsnumber                =                    13
(PID.TID 0000.0001) %MON time_secondsf                =   3.1200000000000E+03
(PID.TID 0000.0001) %MON dynstat_eta_max              =   8.3397712403034E-01
(PID.TID 0000.0001) %MON dynstat_eta_min              =  -8.1510913554529E-01
(PID.TID 0000.0001) %MON dynstat_eta_mean             =  -2.3261409122667E-02
(PID.TID 0000.0001) %MON dynstat_eta_sd               =   1.6731173700794E-01
(PID.TID 0000.0001) %MON dynstat_eta_del2             =   1.2138752992734E-06
(PID.TID 0000.0001) %MON dynstat_uvel_max             =   8.0696374003691E-01
(PID.TID 0000.0001) %MON dynstat_uvel_min             =  -3.3944387767287E-01
(PID.TID 0000.0001) %MON dynstat_uvel_mean            =  -2.6453695998173E-03
(PID.TID 0000.0001) %MON dynstat_uvel_sd              =   1.7174046290888E-02
(PID.TID 0000.0001) %MON dynstat_uvel_del2            =   2.0604028287931E-07
(PID.TID 0000.0001) %MON dynstat_vvel_max             =   8.7261522786931E-01
(PID.TID 0000.0001) %MON dynstat_vvel_min             =  -6.4097289607068E-01
(PID.TID 0000.0001) %MON dynstat_vvel_mean            =  -6.4841428638488E-03
(PID.TID 0000.0001) %MON dynstat_vvel_sd              =   1.6545205667616E-02
(PID.TID 0000.0001) %MON dynstat_vvel_del2            =   1.6910310375725E-07
(PID.TID 0000.0001) %MON dynstat_wvel_max             =   6.7307000836559E-03
(PID.TID 0000.0001) %MON dynstat_wvel_min             =  -5.6529840103148E-03
(PID.TID 0000.0001) %MON dynstat_wvel_mean            =  -2.0937293883871E-06
(PID.TID 0000.0001) %MON dynstat_wvel_sd              =   1.3038407531228E-04
(PID.TID 0000.0001) %MON dynstat_wvel_del2            =   1.3727234741594E-08
(PID.TID 0000.0001) %MON dynstat_theta_max            =   2.5562782845404E+01
(PID.TID 0000.0001) %MON dynstat_theta_min            =   1.4441539553041E+00
(PID.TID 0000.0001) %MON dynstat_theta_mean           =   5.5933907082425E+00
(PID.TID 0000.0001) %MON dynstat_theta_sd             =   4.7972638247282E+00
(PID.TID 0000.0001) %MON dynstat_theta_del2           =   1.5448943497377E-06
(PID.TID 0000.0001) %MON dynstat_salt_max             =   3.8096026061955E+01
(PID.TID 0000.0001) %MON dynstat_salt_min             =   3.0534703084317E+01
(PID.TID 0000.0001) %MON dynstat_salt_mean            =   3.5189814908556E+01
(PID.TID 0000.0001) %MON dynstat_salt_sd              =   4.6942560846190E-01
(PID.TID 0000.0001) %MON dynstat_salt_del2            =   3.1204869258441E-07
(PID.TID 0000.0001) %MON forcing_qnet_max             =   6.7895493489771E+02
(PID.TID 0000.0001) %MON forcing_qnet_min             =  -3.2085559985449E+02
(PID.TID 0000.0001) %MON forcing_qnet_mean            =   2.0188792975838E+02
(PID.TID 0000.0001) %MON forcing_qnet_sd              =   1.2241473364870E+02
(PID.TID 0000.0001) %MON forcing_qnet_del2            =   9.9007015773064E-04
(PID.TID 0000.0001) %MON forcing_qsw_max              =   0.0000000000000E+00
(PID.TID 0000.0001) %MON forcing_qsw_min              =   0.0000000000000E+00
(PID.TID 0000.0001) %MON forcing_qsw_mean             =   0.0000000000000E+00
(PID.TID 0000.0001) %MON forcing_qsw_sd               =   0.0000000000000E+00
(PID.TID 0000.0001) %MON forcing_qsw_del2             =   0.0000000000000E+00
(PID.TID 0000.0001) %MON forcing_empmr_max            =   1.6657167441535E-04
(PID.TID 0000.0001) %MON forcing_empmr_min            =  -1.7900816652491E-03
(PID.TID 0000.0001) %MON forcing_empmr_mean           =   6.7528892740944E-06
(PID.TID 0000.0001) %MON forcing_empmr_sd             =   1.3243455357407E-04
(PID.TID 0000.0001) %MON forcing_empmr_del2           =   2.7265566182933E-09
(PID.TID 0000.0001) %MON forcing_fu_max               =   8.3597026207757E-01
(PID.TID 0000.0001) %MON forcing_fu_min               =  -3.8936786403219E-01
(PID.TID 0000.0001) %MON forcing_fu_mean              =   6.4012708976356E-02
(PID.TID 0000.0001) %MON forcing_fu_sd                =   1.5394990158348E-01
(PID.TID 0000.0001) %MON forcing_fu_del2              =   3.3382073045205E-07
(PID.TID 0000.0001) %MON forcing_fv_max               =   4.1997630578507E-01
(PID.TID 0000.0001) %MON forcing_fv_min               =  -5.7035716154891E-01
(PID.TID 0000.0001) %MON forcing_fv_mean              =   1.0708324516964E-02
(PID.TID 0000.0001) %MON forcing_fv_sd                =   1.0147450015640E-01
(PID.TID 0000.0001) %MON forcing_fv_del2              =   2.7294536953855E-07
(PID.TID 0000.0001) %MON trAdv_CFL_u_max              =   4.8137778133985E-02
(PID.TID 0000.0001) %MON trAdv_CFL_v_max              =   5.5313825698321E-02
(PID.TID 0000.0001) %MON trAdv_CFL_w_max              =   2.5249056989416E-01
(PID.TID 0000.0001) %MON advcfl_uvel_max              =   4.8137777648969E-02
(PID.TID 0000.0001) %MON advcfl_vvel_max              =   5.5333153688653E-02
(PID.TID 0000.0001) %MON advcfl_wvel_max              =   2.5249056989416E-01
(PID.TID 0000.0001) %MON advcfl_W_hf_max              =   2.5249056989416E-01
(PID.TID 0000.0001) %MON pe_b_mean                    =  -5.3902942953796E-04
(PID.TID 0000.0001) %MON ke_max                       =   4.5860109202357E-01
(PID.TID 0000.0001) %MON ke_mean                      =   3.0650218784689E-04
(PID.TID 0000.0001) %MON ke_vol                       =   4.5818637279721E+16
(PID.TID 0000.0001) %MON vort_r_min                   =  -3.2877882378767E-04
(PID.TID 0000.0001) %MON vort_r_max                   =   3.7898521229021E-04
(PID.TID 0000.0001) %MON vort_a_mean                  =   8.2147591980076E-05
(PID.TID 0000.0001) %MON vort_a_sd                    =   9.7082967015895E-06
(PID.TID 0000.0001) %MON vort_p_mean                  =   8.4848812266284E-05
(PID.TID 0000.0001) %MON vort_p_sd                    =   3.5006010862732E-05
(PID.TID 0000.0001) %MON surfExpan_theta_mean         =   4.3069024035671E-05
(PID.TID 0000.0001) %MON surfExpan_salt_mean          =  -2.5326530005522E-05
(PID.TID 0000.0001) // =======================================================
(PID.TID 0000.0001) // End MONITOR dynamic field statistics
(PID.TID 0000.0001) // =======================================================
(PID.TID 0000.0001) // =======================================================
(PID.TID 0000.0001) // Begin OBCS MONITOR field statistics
(PID.TID 0000.0001) // =======================================================
(PID.TID 0000.0001) %MON obc_N_vVel_max               =   7.4051447650187E-02
(PID.TID 0000.0001) %MON obc_N_vVel_min               =  -5.9309968757023E-01
(PID.TID 0000.0001) %MON obc_N_vVel_mean              =  -7.0842033574241E-03
(PID.TID 0000.0001) %MON obc_N_vVel_sd                =   1.6825587302110E-02
(PID.TID 0000.0001) %MON obc_N_vVel_Int               =  -1.0141096941227E+08
(PID.TID 0000.0001) %MON obc_S_vVel_max               =   6.4832134033940E-01
(PID.TID 0000.0001) %MON obc_S_vVel_min               =  -1.0655498110809E-01
(PID.TID 0000.0001) %MON obc_S_vVel_mean              =  -3.7084799173283E-03
(PID.TID 0000.0001) %MON obc_S_vVel_sd                =   1.9939018378247E-02
(PID.TID 0000.0001) %MON obc_S_vVel_Int               =  -1.1289688206227E+08
(PID.TID 0000.0001) %MON obc_N_theta_max              =   1.6146084029093E+01
(PID.TID 0000.0001) %MON obc_N_theta_min              =   1.6872826605389E+00
(PID.TID 0000.0001) %MON obc_N_theta_mean             =   5.2225816976349E+00
(PID.TID 0000.0001) %MON obc_N_theta_sd               =   3.6303738884683E+00
(PID.TID 0000.0001) %MON obc_S_theta_max              =   2.5392401786332E+01
(PID.TID 0000.0001) %MON obc_S_theta_min              =   1.5161807795950E+00
(PID.TID 0000.0001) %MON obc_S_theta_mean             =   5.4082409386874E+00
(PID.TID 0000.0001) %MON obc_S_theta_sd               =   5.1183076962382E+00
(PID.TID 0000.0001) %MON obc_N_salt_max               =   3.6395893924442E+01
(PID.TID 0000.0001) %MON obc_N_salt_min               =   3.0617685321997E+01
(PID.TID 0000.0001) %MON obc_N_salt_mean              =   3.5063772648826E+01
(PID.TID 0000.0001) %MON obc_N_salt_sd                =   3.9119752032211E-01
(PID.TID 0000.0001) %MON obc_S_salt_max               =   3.7332401996972E+01
(PID.TID 0000.0001) %MON obc_S_salt_min               =   3.4852181406128E+01
(PID.TID 0000.0001) %MON obc_S_salt_mean              =   3.5186251226266E+01
(PID.TID 0000.0001) %MON obc_S_salt_sd                =   5.1365435812598E-01
(PID.TID 0000.0001) // =======================================================
(PID.TID 0000.0001) // End OBCS MONITOR field statistics
(PID.TID 0000.0001) // =======================================================
(PID.TID 0000.0001) // =======================================================
(PID.TID 0000.0001) // Begin MONITOR EXF statistics
(PID.TID 0000.0001) // =======================================================
(PID.TID 0000.0001) %MON exf_tsnumber                 =                    13
(PID.TID 0000.0001) %MON exf_time_sec                 =   3.1200000000000E+03
(PID.TID 0000.0001) %MON exf_ustress_max              =   8.5220683068707E-01
(PID.TID 0000.0001) %MON exf_ustress_min              =  -3.8737328936201E-01
(PID.TID 0000.0001) %MON exf_ustress_mean             =   6.4167828276045E-02
(PID.TID 0000.0001) %MON exf_ustress_sd               =   1.5423774388803E-01
(PID.TID 0000.0001) %MON exf_ustress_del2             =   3.7245482131212E-07
(PID.TID 0000.0001) %MON exf_vstress_max              =   4.2435435842746E-01
(PID.TID 0000.0001) %MON exf_vstress_min              =  -5.6751850706054E-01
(PID.TID 0000.0001) %MON exf_vstress_mean             =   1.0789814419869E-02
(PID.TID 0000.0001) %MON exf_vstress_sd               =   1.0166750830140E-01
(PID.TID 0000.0001) %MON exf_vstress_del2             =   3.1706687666411E-07
(PID.TID 0000.0001) %MON exf_hflux_max                =   6.7015909630443E+02
(PID.TID 0000.0001) %MON exf_hflux_min                =  -3.1828225077395E+02
(PID.TID 0000.0001) %MON exf_hflux_mean               =   2.0087363200247E+02
(PID.TID 0000.0001) %MON exf_hflux_sd                 =   1.2133822372381E+02
(PID.TID 0000.0001) %MON exf_hflux_del2               =   9.2362699607322E-02
(PID.TID 0000.0001) %MON exf_sflux_max                =   1.6601788614424E-07
(PID.TID 0000.0001) %MON exf_sflux_min                =  -1.8089302688888E-06
(PID.TID 0000.0001) %MON exf_sflux_mean               =   6.5449808809773E-09
(PID.TID 0000.0001) %MON exf_sflux_sd                 =   1.3279862896474E-07
(PID.TID 0000.0001) %MON exf_sflux_del2               =   5.2701992070614E-11
(PID.TID 0000.0001) %MON exf_uwind_max                =   1.9736897009740E+01
(PID.TID 0000.0001) %MON exf_uwind_min                =  -1.4757545474211E+01
(PID.TID 0000.0001) %MON exf_uwind_mean               =   2.5149200915475E+00
(PID.TID 0000.0001) %MON exf_uwind_sd                 =   6.6631101245198E+00
(PID.TID 0000.0001) %MON exf_uwind_del2               =   2.8428240134914E-03
(PID.TID 0000.0001) %MON exf_vwind_max                =   1.4654114121653E+01
(PID.TID 0000.0001) %MON exf_vwind_min                =  -1.2840916091603E+01
(PID.TID 0000.0001) %MON exf_vwind_mean               =   8.5922840975586E-01
(PID.TID 0000.0001) %MON exf_vwind_sd                 =   5.1892401564484E+00
(PID.TID 0000.0001) %MON exf_vwind_del2               =   2.0928837714824E-03
(PID.TID 0000.0001) %MON exf_wspeed_max               =   2.0166143365657E+01
(PID.TID 0000.0001) %MON exf_wspeed_min               =   1.8237048644589E-02
(PID.TID 0000.0001) %MON exf_wspeed_mean              =   7.7150597979849E+00
(PID.TID 0000.0001) %MON exf_wspeed_sd                =   4.3435237737686E+00
(PID.TID 0000.0001) %MON exf_wspeed_del2              =   3.5298014609760E-03
(PID.TID 0000.0001) %MON exf_atemp_max                =   2.9814925941584E+02
(PID.TID 0000.0001) %MON exf_atemp_min                =   2.7421894296331E+02
(PID.TID 0000.0001) %MON exf_atemp_mean               =   2.9066157111295E+02
(PID.TID 0000.0001) %MON exf_atemp_sd                 =   3.9477200203663E+00
(PID.TID 0000.0001) %MON exf_atemp_del2               =   6.8340585425561E-03
(PID.TID 0000.0001) %MON exf_aqh_max                  =   1.6731653621973E-02
(PID.TID 0000.0001) %MON exf_aqh_min                  =   2.7102318615487E-03
(PID.TID 0000.0001) %MON exf_aqh_mean                 =   9.4133265149605E-03
(PID.TID 0000.0001) %MON exf_aqh_sd                   =   2.8788045368042E-03
(PID.TID 0000.0001) %MON exf_aqh_del2                 =   3.7473124270333E-06
(PID.TID 0000.0001) %MON exf_lwflux_max               =   1.6674701287440E+02
(PID.TID 0000.0001) %MON exf_lwflux_min               =  -5.6069305125949E+00
(PID.TID 0000.0001) %MON exf_lwflux_mean              =   6.0676086106283E+01
(PID.TID 0000.0001) %MON exf_lwflux_sd                =   2.6576405334986E+01
(PID.TID 0000.0001) %MON exf_lwflux_del2              =   2.5475683020697E-02
(PID.TID 0000.0001) %MON exf_evap_max                 =   1.9170900262587E-07
(PID.TID 0000.0001) %MON exf_evap_min                 =  -1.0361475089341E-07
(PID.TID 0000.0001) %MON exf_evap_mean                =   4.9706579861308E-08
(PID.TID 0000.0001) %MON exf_evap_sd                  =   3.8673313489047E-08
(PID.TID 0000.0001) %MON exf_evap_del2                =   2.4906441178310E-11
(PID.TID 0000.0001) %MON exf_precip_max               =   1.9919087312383E-06
(PID.TID 0000.0001) %MON exf_precip_min               =   0.0000000000000E+00
(PID.TID 0000.0001) %MON exf_precip_mean              =   4.1573119575111E-08
(PID.TID 0000.0001) %MON exf_precip_sd                =   1.3847173982181E-07
(PID.TID 0000.0001) %MON exf_precip_del2              =   5.7911885402760E-11
(PID.TID 0000.0001) %MON exf_swflux_max               =   0.0000000000000E+00
(PID.TID 0000.0001) %MON exf_swflux_min               =   0.0000000000000E+00
(PID.TID 0000.0001) %MON exf_swflux_mean              =   0.0000000000000E+00
(PID.TID 0000.0001) %MON exf_swflux_sd                =   0.0000000000000E+00
(PID.TID 0000.0001) %MON exf_swflux_del2              =   0.0000000000000E+00
(PID.TID 0000.0001) %MON exf_swdown_max               =   0.0000000000000E+00
(PID.TID 0000.0001) %MON exf_swdown_min               =   0.0000000000000E+00
(PID.TID 0000.0001) %MON exf_swdown_mean              =   0.0000000000000E+00
(PID.TID 0000.0001) %MON exf_swdown_sd                =   0.0000000000000E+00
(PID.TID 0000.0001) %MON exf_swdown_del2              =   0.0000000000000E+00
(PID.TID 0000.0001) %MON exf_lwdown_max               =   4.1840604284666E+02
(PID.TID 0000.0001) %MON exf_lwdown_min               =   2.2445126639892E+02
(PID.TID 0000.0001) %MON exf_lwdown_mean              =   3.4969486171956E+02
(PID.TID 0000.0001) %MON exf_lwdown_sd                =   3.1528634700620E+01
(PID.TID 0000.0001) %MON exf_lwdown_del2              =   1.3543592526740E-01
(PID.TID 0000.0001) %MON exf_apressure_max            =   1.0281513960403E+05
(PID.TID 0000.0001) %MON exf_apressure_min            =   1.0001593693690E+05
(PID.TID 0000.0001) %MON exf_apressure_mean           =   1.0216918376558E+05
(PID.TID 0000.0001) %MON exf_apressure_sd             =   4.9886755904092E+02
(PID.TID 0000.0001) %MON exf_apressure_del2           =   3.9521253763380E+01
(PID.TID 0000.0001) %MON exf_runoff_max               =   4.4374791284855E-08
(PID.TID 0000.0001) %MON exf_runoff_min               =   0.0000000000000E+00
(PID.TID 0000.0001) %MON exf_runoff_mean              =   1.5884794052194E-09
(PID.TID 0000.0001) %MON exf_runoff_sd                =   5.3901957917178E-09
(PID.TID 0000.0001) %MON exf_runoff_del2              =   2.2191214937507E-12
(PID.TID 0000.0001) // =======================================================
(PID.TID 0000.0001) // End MONITOR EXF statistics
(PID.TID 0000.0001) // =======================================================
 cg2d: Sum(rhs),rhsMax =   6.83439813382435E+02  5.45502443912877E-02
(PID.TID 0000.0001)      cg2d_init_res =   5.27701310093359E-01
(PID.TID 0000.0001)      cg2d_iters(min,last) =      -1     305
(PID.TID 0000.0001)      cg2d_last_res =   6.87223780815220E-12
(PID.TID 0000.0001) // =======================================================
(PID.TID 0000.0001) // Begin MONITOR dynamic field statistics
(PID.TID 0000.0001) // =======================================================
(PID.TID 0000.0001) %MON time_tsnumber                =                    14
(PID.TID 0000.0001) %MON time_secondsf                =   3.3600000000000E+03
(PID.TID 0000.0001) %MON dynstat_eta_max              =   8.0816013573693E-01
(PID.TID 0000.0001) %MON dynstat_eta_min              =  -9.0738655725050E-01
(PID.TID 0000.0001) %MON dynstat_eta_mean             =  -2.3241806825887E-02
(PID.TID 0000.0001) %MON dynstat_eta_sd               =   1.7177511099251E-01
(PID.TID 0000.0001) %MON dynstat_eta_del2             =   1.2295847103556E-06
(PID.TID 0000.0001) %MON dynstat_uvel_max             =   7.8832733560869E-01
(PID.TID 0000.0001) %MON dynstat_uvel_min             =  -3.4673130967082E-01
(PID.TID 0000.0001) %MON dynstat_uvel_mean            =  -2.9135641901344E-03
(PID.TID 0000.0001) %MON dynstat_uvel_sd              =   1.7165810192589E-02
(PID.TID 0000.0001) %MON dynstat_uvel_del2            =   2.1041027165371E-07
(PID.TID 0000.0001) %MON dynstat_vvel_max             =   8.6918605004793E-01
(PID.TID 0000.0001) %MON dynstat_vvel_min             =  -6.3950747573528E-01
(PID.TID 0000.0001) %MON dynstat_vvel_mean            =  -6.6986114925784E-03
(PID.TID 0000.0001) %MON dynstat_vvel_sd              =   1.6614461201962E-02
(PID.TID 0000.0001) %MON dynstat_vvel_del2            =   1.7348488623568E-07
(PID.TID 0000.0001) %MON dynstat_wvel_max             =   6.8098773377194E-03
(PID.TID 0000.0001) %MON dynstat_wvel_min             =  -5.5872828003325E-03
(PID.TID 0000.0001) %MON dynstat_wvel_mean            =  -1.4197418344991E-06
(PID.TID 0000.0001) %MON dynstat_wvel_sd              =   1.3394443059762E-04
(PID.TID 0000.0001) %MON dynstat_wvel_del2            =   1.3939529398062E-08
(PID.TID 0000.0001) %MON dynstat_theta_max            =   2.5562503259726E+01
(PID.TID 0000.0001) %MON dynstat_theta_min            =   1.4441539591806E+00
(PID.TID 0000.0001) %MON dynstat_theta_mean           =   5.5933846254435E+00
(PID.TID 0000.0001) %MON dynstat_theta_sd             =   4.7972466808636E+00
(PID.TID 0000.0001) %MON dynstat_theta_del2           =   1.5524215576317E-06
(PID.TID 0000.0001) %MON dynstat_salt_max             =   3.8096003150663E+01
(PID.TID 0000.0001) %MON dynstat_salt_min             =   3.0535035995920E+01
(PID.TID 0000.0001) %MON dynstat_salt_mean            =   3.5189814110653E+01
(PID.TID 0000.0001) %MON dynstat_salt_sd              =   4.6942549410826E-01
(PID.TID 0000.0001) %MON dynstat_salt_del2            =   3.1875305518656E-07
(PID.TID 0000.0001) %MON forcing_qnet_max             =   6.7684533903597E+02
(PID.TID 0000.0001) %MON forcing_qnet_min             =  -3.2321794362951E+02
(PID.TID 0000.0001) %MON forcing_qnet_mean            =   2.0198778340911E+02
(PID.TID 0000.0001) %MON forcing_qnet_sd              =   1.2252786747623E+02
(PID.TID 0000.0001) %MON forcing_qnet_del2            =   9.9951668093584E-04
(PID.TID 0000.0001) %MON forcing_qsw_max              =   0.0000000000000E+00
(PID.TID 0000.0001) %MON forcing_qsw_min              =   0.0000000000000E+00
(PID.TID 0000.0001) %MON forcing_qsw_mean             =   0.0000000000000E+00
(PID.TID 0000.0001) %MON forcing_qsw_sd               =   0.0000000000000E+00
(PID.TID 0000.0001) %MON forcing_qsw_del2             =   0.0000000000000E+00
(PID.TID 0000.0001) %MON forcing_empmr_max            =   1.6601788614424E-04
(PID.TID 0000.0001) %MON forcing_empmr_min            =  -1.8089302688888E-03
(PID.TID 0000.0001) %MON forcing_empmr_mean           =   6.5449808809773E-06
(PID.TID 0000.0001) %MON forcing_empmr_sd             =   1.3279862896474E-04
(PID.TID 0000.0001) %MON forcing_empmr_del2           =   2.6452366700498E-09
(PID.TID 0000.0001) %MON forcing_fu_max               =   8.5212817121488E-01
(PID.TID 0000.0001) %MON forcing_fu_min               =  -3.8735220350035E-01
(PID.TID 0000.0001) %MON forcing_fu_mean              =   6.4229785520574E-02
(PID.TID 0000.0001) %MON forcing_fu_sd                =   1.5429708111930E-01
(PID.TID 0000.0001) %MON forcing_fu_del2              =   3.5266015933515E-07
(PID.TID 0000.0001) %MON forcing_fv_max               =   4.2430856224720E-01
(PID.TID 0000.0001) %MON forcing_fv_min               =  -5.7222949690676E-01
(PID.TID 0000.0001) %MON forcing_fv_mean              =   1.0773921136039E-02
(PID.TID 0000.0001) %MON forcing_fv_sd                =   1.0179792893970E-01
(PID.TID 0000.0001) %MON forcing_fv_del2              =   2.9111511202626E-07
(PID.TID 0000.0001) %MON trAdv_CFL_u_max              =   4.7028974359619E-02
(PID.TID 0000.0001) %MON trAdv_CFL_v_max              =   5.5096455042569E-02
(PID.TID 0000.0001) %MON trAdv_CFL_w_max              =   2.4113123236482E-01
(PID.TID 0000.0001) %MON advcfl_uvel_max              =   4.7028973885775E-02
(PID.TID 0000.0001) %MON advcfl_vvel_max              =   5.5115707078330E-02
(PID.TID 0000.0001) %MON advcfl_wvel_max              =   2.4113123236482E-01
(PID.TID 0000.0001) %MON advcfl_W_hf_max              =   2.4113123236482E-01
(PID.TID 0000.0001) %MON pe_b_mean                    =  -5.3675293037638E-04
(PID.TID 0000.0001) %MON ke_max                       =   4.5665091224403E-01
(PID.TID 0000.0001) %MON ke_mean                      =   3.0965161584713E-04
(PID.TID 0000.0001) %MON ke_vol                       =   4.5818637279721E+16
(PID.TID 0000.0001) %MON vort_r_min                   =  -3.2969248465190E-04
(PID.TID 0000.0001) %MON vort_r_max                   =   3.7175018109350E-04
(PID.TID 0000.0001) %MON vort_a_mean                  =   8.2147592276692E-05
(PID.TID 0000.0001) %MON vort_a_sd                    =   9.7085055365424E-06
(PID.TID 0000.0001) %MON vort_p_mean                  =   8.4848812572653E-05
(PID.TID 0000.0001) %MON vort_p_sd                    =   3.5007176178552E-05
(PID.TID 0000.0001) %MON surfExpan_theta_mean         =   6.5906232504578E-05
(PID.TID 0000.0001) %MON surfExpan_salt_mean          =   1.4289837689516E-05
(PID.TID 0000.0001) // =======================================================
(PID.TID 0000.0001) // End MONITOR dynamic field statistics
(PID.TID 0000.0001) // =======================================================
(PID.TID 0000.0001) // =======================================================
(PID.TID 0000.0001) // Begin OBCS MONITOR field statistics
(PID.TID 0000.0001) // =======================================================
(PID.TID 0000.0001) %MON obc_N_vVel_max               =   7.6077642342633E-02
(PID.TID 0000.0001) %MON obc_N_vVel_min               =  -5.8884716366201E-01
(PID.TID 0000.0001) %MON obc_N_vVel_mean              =  -7.1344780851604E-03
(PID.TID 0000.0001) %MON obc_N_vVel_sd                =   1.6804973307324E-02
(PID.TID 0000.0001) %MON obc_N_vVel_Int               =  -1.0213065638615E+08
(PID.TID 0000.0001) %MON obc_S_vVel_max               =   6.4904532569197E-01
(PID.TID 0000.0001) %MON obc_S_vVel_min               =  -1.0645481987697E-01
(PID.TID 0000.0001) %MON obc_S_vVel_mean              =  -3.3245057599917E-03
(PID.TID 0000.0001) %MON obc_S_vVel_sd                =   1.9917612826478E-02
(PID.TID 0000.0001) %MON obc_S_vVel_Int               =  -1.0120759531348E+08
(PID.TID 0000.0001) %MON obc_N_theta_max              =   1.6146089620501E+01
(PID.TID 0000.0001) %MON obc_N_theta_min              =   1.6872139863383E+00
(PID.TID 0000.0001) %MON obc_N_theta_mean             =   5.2225797713462E+00
(PID.TID 0000.0001) %MON obc_N_theta_sd               =   3.6303701039818E+00
(PID.TID 0000.0001) %MON obc_S_theta_max              =   2.5392389509152E+01
(PID.TID 0000.0001) %MON obc_S_theta_min              =   1.5161807578801E+00
(PID.TID 0000.0001) %MON obc_S_theta_mean             =   5.4082400175395E+00
(PID.TID 0000.0001) %MON obc_S_theta_sd               =   5.1183045009446E+00
(PID.TID 0000.0001) %MON obc_N_salt_max               =   3.6395895267898E+01
(PID.TID 0000.0001) %MON obc_N_salt_min               =   3.0617701885599E+01
(PID.TID 0000.0001) %MON obc_N_salt_mean              =   3.5063772719178E+01
(PID.TID 0000.0001) %MON obc_N_salt_sd                =   3.9119714850771E-01
(PID.TID 0000.0001) %MON obc_S_salt_max               =   3.7332392617847E+01
(PID.TID 0000.0001) %MON obc_S_salt_min               =   3.4852181404387E+01
(PID.TID 0000.0001) %MON obc_S_salt_mean              =   3.5186251266762E+01
(PID.TID 0000.0001) %MON obc_S_salt_sd                =   5.1365444425154E-01
(PID.TID 0000.0001) // =======================================================
(PID.TID 0000.0001) // End OBCS MONITOR field statistics
(PID.TID 0000.0001) // =======================================================
(PID.TID 0000.0001) // =======================================================
(PID.TID 0000.0001) // Begin MONITOR EXF statistics
(PID.TID 0000.0001) // =======================================================
(PID.TID 0000.0001) %MON exf_tsnumber                 =                    14
(PID.TID 0000.0001) %MON exf_time_sec                 =   3.3600000000000E+03
(PID.TID 0000.0001) %MON exf_ustress_max              =   8.7048276198865E-01
(PID.TID 0000.0001) %MON exf_ustress_min              =  -3.8546276401994E-01
(PID.TID 0000.0001) %MON exf_ustress_mean             =   6.4409381025907E-02
(PID.TID 0000.0001) %MON exf_ustress_sd               =   1.5466110862438E-01
(PID.TID 0000.0001) %MON exf_ustress_del2             =   3.9434696728031E-07
(PID.TID 0000.0001) %MON exf_vstress_max              =   4.2957090713322E-01
(PID.TID 0000.0001) %MON exf_vstress_min              =  -5.6942664430631E-01
(PID.TID 0000.0001) %MON exf_vstress_mean             =   1.0854324094648E-02
(PID.TID 0000.0001) %MON exf_vstress_sd               =   1.0205687248745E-01
(PID.TID 0000.0001) %MON exf_vstress_del2             =   3.3894992550347E-07
(PID.TID 0000.0001) %MON exf_hflux_max                =   6.6844942395547E+02
(PID.TID 0000.0001) %MON exf_hflux_min                =  -3.2071646673958E+02
(PID.TID 0000.0001) %MON exf_hflux_mean               =   2.0100489930093E+02
(PID.TID 0000.0001) %MON exf_hflux_sd                 =   1.2150863275620E+02
(PID.TID 0000.0001) %MON exf_hflux_del2               =   9.2453099136753E-02
(PID.TID 0000.0001) %MON exf_sflux_max                =   1.6546703450596E-07
(PID.TID 0000.0001) %MON exf_sflux_min                =  -1.8277829006081E-06
(PID.TID 0000.0001) %MON exf_sflux_mean               =   6.3432037982865E-09
(PID.TID 0000.0001) %MON exf_sflux_sd                 =   1.3346914699435E-07
(PID.TID 0000.0001) %MON exf_sflux_del2               =   5.2868923045803E-11
(PID.TID 0000.0001) %MON exf_uwind_max                =   1.9887127912784E+01
(PID.TID 0000.0001) %MON exf_uwind_min                =  -1.4735798289055E+01
(PID.TID 0000.0001) %MON exf_uwind_mean               =   2.5163825786842E+00
(PID.TID 0000.0001) %MON exf_uwind_sd                 =   6.6665812508059E+00
(PID.TID 0000.0001) %MON exf_uwind_del2               =   2.8443107168978E-03
(PID.TID 0000.0001) %MON exf_vwind_max                =   1.4746049149619E+01
(PID.TID 0000.0001) %MON exf_vwind_min                =  -1.2870753136906E+01
(PID.TID 0000.0001) %MON exf_vwind_mean               =   8.6084015554497E-01
(PID.TID 0000.0001) %MON exf_vwind_sd                 =   5.1957365414164E+00
(PID.TID 0000.0001) %MON exf_vwind_del2               =   2.0959029747235E-03
(PID.TID 0000.0001) %MON exf_wspeed_max               =   2.0165798448946E+01
(PID.TID 0000.0001) %MON exf_wspeed_min               =   6.6138981668990E-03
(PID.TID 0000.0001) %MON exf_wspeed_mean              =   7.7194166307338E+00
(PID.TID 0000.0001) %MON exf_wspeed_sd                =   4.3500365191870E+00
(PID.TID 0000.0001) %MON exf_wspeed_del2              =   3.5327701971906E-03
(PID.TID 0000.0001) %MON exf_atemp_max                =   2.9814706212742E+02
(PID.TID 0000.0001) %MON exf_atemp_min                =   2.7419334175467E+02
(PID.TID 0000.0001) %MON exf_atemp_mean               =   2.9065844990676E+02
(PID.TID 0000.0001) %MON exf_atemp_sd                 =   3.9488923540295E+00
(PID.TID 0000.0001) %MON exf_atemp_del2               =   6.8329438603542E-03
(PID.TID 0000.0001) %MON exf_aqh_max                  =   1.6724667321099E-02
(PID.TID 0000.0001) %MON exf_aqh_min                  =   2.7079371637848E-03
(PID.TID 0000.0001) %MON exf_aqh_mean                 =   9.4121383621464E-03
(PID.TID 0000.0001) %MON exf_aqh_sd                   =   2.8803678201485E-03
(PID.TID 0000.0001) %MON exf_aqh_del2                 =   3.7469751676613E-06
(PID.TID 0000.0001) %MON exf_lwflux_max               =   1.6705815946781E+02
(PID.TID 0000.0001) %MON exf_lwflux_min               =  -5.0971355721124E+00
(PID.TID 0000.0001) %MON exf_lwflux_mean              =   6.0659958177726E+01
(PID.TID 0000.0001) %MON exf_lwflux_sd                =   2.6573662818041E+01
(PID.TID 0000.0001) %MON exf_lwflux_del2              =   2.5467590574085E-02
(PID.TID 0000.0001) %MON exf_evap_max                 =   1.9199828481868E-07
(PID.TID 0000.0001) %MON exf_evap_min                 =  -1.0438021552286E-07
(PID.TID 0000.0001) %MON exf_evap_mean                =   4.9747938050845E-08
(PID.TID 0000.0001) %MON exf_evap_sd                  =   3.8715397602024E-08
(PID.TID 0000.0001) %MON exf_evap_del2                =   2.4933016190487E-11
(PID.TID 0000.0001) %MON exf_precip_max               =   2.0113592581988E-06
(PID.TID 0000.0001) %MON exf_precip_min               =   0.0000000000000E+00
(PID.TID 0000.0001) %MON exf_precip_mean              =   4.1816254847339E-08
(PID.TID 0000.0001) %MON exf_precip_sd                =   1.3924115911834E-07
(PID.TID 0000.0001) %MON exf_precip_del2              =   5.8140031239136E-11
(PID.TID 0000.0001) %MON exf_swflux_max               =   0.0000000000000E+00
(PID.TID 0000.0001) %MON exf_swflux_min               =   0.0000000000000E+00
(PID.TID 0000.0001) %MON exf_swflux_mean              =   0.0000000000000E+00
(PID.TID 0000.0001) %MON exf_swflux_sd                =   0.0000000000000E+00
(PID.TID 0000.0001) %MON exf_swflux_del2              =   0.0000000000000E+00
(PID.TID 0000.0001) %MON exf_swdown_max               =   0.0000000000000E+00
(PID.TID 0000.0001) %MON exf_swdown_min               =   0.0000000000000E+00
(PID.TID 0000.0001) %MON exf_swdown_mean              =   0.0000000000000E+00
(PID.TID 0000.0001) %MON exf_swdown_sd                =   0.0000000000000E+00
(PID.TID 0000.0001) %MON exf_swdown_del2              =   0.0000000000000E+00
(PID.TID 0000.0001) %MON exf_lwdown_max               =   4.1843716545593E+02
(PID.TID 0000.0001) %MON exf_lwdown_min               =   2.2422663445087E+02
(PID.TID 0000.0001) %MON exf_lwdown_mean              =   3.4970935287256E+02
(PID.TID 0000.0001) %MON exf_lwdown_sd                =   3.1487341464055E+01
(PID.TID 0000.0001) %MON exf_lwdown_del2              =   1.3544134476363E-01
(PID.TID 0000.0001) %MON exf_apressure_max            =   1.0281834697520E+05
(PID.TID 0000.0001) %MON exf_apressure_min            =   1.0001465908832E+05
(PID.TID 0000.0001) %MON exf_apressure_mean           =   1.0216996107213E+05
(PID.TID 0000.0001) %MON exf_apressure_sd             =   4.9898322972271E+02
(PID.TID 0000.0001) %MON exf_apressure_del2           =   3.9521561661577E+01
(PID.TID 0000.0001) %MON exf_runoff_max               =   4.4374791284855E-08
(PID.TID 0000.0001) %MON exf_runoff_min               =   0.0000000000000E+00
(PID.TID 0000.0001) %MON exf_runoff_mean              =   1.5884794052194E-09
(PID.TID 0000.0001) %MON exf_runoff_sd                =   5.3901957917178E-09
(PID.TID 0000.0001) %MON exf_runoff_del2              =   2.2191214937507E-12
(PID.TID 0000.0001) // =======================================================
(PID.TID 0000.0001) // End MONITOR EXF statistics
(PID.TID 0000.0001) // =======================================================
 cg2d: Sum(rhs),rhsMax =   6.75108917584260E+02  5.50753688903134E-02
(PID.TID 0000.0001)      cg2d_init_res =   5.28421090915389E-01
(PID.TID 0000.0001)      cg2d_iters(min,last) =      -1     304
(PID.TID 0000.0001)      cg2d_last_res =   6.97071061782683E-12
(PID.TID 0000.0001) // =======================================================
(PID.TID 0000.0001) // Begin MONITOR dynamic field statistics
(PID.TID 0000.0001) // =======================================================
(PID.TID 0000.0001) %MON time_tsnumber                =                    15
(PID.TID 0000.0001) %MON time_secondsf                =   3.6000000000000E+03
(PID.TID 0000.0001) %MON dynstat_eta_max              =   7.8666428613598E-01
(PID.TID 0000.0001) %MON dynstat_eta_min              =  -9.5651941314389E-01
(PID.TID 0000.0001) %MON dynstat_eta_mean             =  -2.2958497210269E-02
(PID.TID 0000.0001) %MON dynstat_eta_sd               =   1.7549964203335E-01
(PID.TID 0000.0001) %MON dynstat_eta_del2             =   1.2567492084164E-06
(PID.TID 0000.0001) %MON dynstat_uvel_max             =   7.4593429620284E-01
(PID.TID 0000.0001) %MON dynstat_uvel_min             =  -3.5316618711719E-01
(PID.TID 0000.0001) %MON dynstat_uvel_mean            =  -3.1796580318436E-03
(PID.TID 0000.0001) %MON dynstat_uvel_sd              =   1.7162135197645E-02
(PID.TID 0000.0001) %MON dynstat_uvel_del2            =   2.1421997419994E-07
(PID.TID 0000.0001) %MON dynstat_vvel_max             =   8.6091948100468E-01
(PID.TID 0000.0001) %MON dynstat_vvel_min             =  -6.3741239621698E-01
(PID.TID 0000.0001) %MON dynstat_vvel_mean            =  -6.8819830922614E-03
(PID.TID 0000.0001) %MON dynstat_vvel_sd              =   1.6687389123488E-02
(PID.TID 0000.0001) %MON dynstat_vvel_del2            =   1.7769951228009E-07
(PID.TID 0000.0001) %MON dynstat_wvel_max             =   6.8904085095504E-03
(PID.TID 0000.0001) %MON dynstat_wvel_min             =  -5.4647294623183E-03
(PID.TID 0000.0001) %MON dynstat_wvel_mean            =  -7.4381002563524E-07
(PID.TID 0000.0001) %MON dynstat_wvel_sd              =   1.3755899936835E-04
(PID.TID 0000.0001) %MON dynstat_wvel_del2            =   1.4173703256230E-08
(PID.TID 0000.0001) %MON dynstat_theta_max            =   2.5561933161390E+01
(PID.TID 0000.0001) %MON dynstat_theta_min            =   1.4441539630572E+00
(PID.TID 0000.0001) %MON dynstat_theta_mean           =   5.5933775038907E+00
(PID.TID 0000.0001) %MON dynstat_theta_sd             =   4.7972276384611E+00
(PID.TID 0000.0001) %MON dynstat_theta_del2           =   1.5600507904510E-06
(PID.TID 0000.0001) %MON dynstat_salt_max             =   3.8095977787866E+01
(PID.TID 0000.0001) %MON dynstat_salt_min             =   3.0535370888575E+01
(PID.TID 0000.0001) %MON dynstat_salt_mean            =   3.5189813244913E+01
(PID.TID 0000.0001) %MON dynstat_salt_sd              =   4.6942495125335E-01
(PID.TID 0000.0001) %MON dynstat_salt_del2            =   3.2567226023679E-07
(PID.TID 0000.0001) %MON forcing_qnet_max             =   6.7478589784972E+02
(PID.TID 0000.0001) %MON forcing_qnet_min             =  -3.2567474246881E+02
(PID.TID 0000.0001) %MON forcing_qnet_mean            =   2.0210652369195E+02
(PID.TID 0000.0001) %MON forcing_qnet_sd              =   1.2268310564566E+02
(PID.TID 0000.0001) %MON forcing_qnet_del2            =   1.0146467975637E-03
(PID.TID 0000.0001) %MON forcing_qsw_max              =   0.0000000000000E+00
(PID.TID 0000.0001) %MON forcing_qsw_min              =   0.0000000000000E+00
(PID.TID 0000.0001) %MON forcing_qsw_mean             =   0.0000000000000E+00
(PID.TID 0000.0001) %MON forcing_qsw_sd               =   0.0000000000000E+00
(PID.TID 0000.0001) %MON forcing_qsw_del2             =   0.0000000000000E+00
(PID.TID 0000.0001) %MON forcing_empmr_max            =   1.6546703450596E-04
(PID.TID 0000.0001) %MON forcing_empmr_min            =  -1.8277829006081E-03
(PID.TID 0000.0001) %MON forcing_empmr_mean           =   6.3432037982865E-06
(PID.TID 0000.0001) %MON forcing_empmr_sd             =   1.3346914699435E-04
(PID.TID 0000.0001) %MON forcing_empmr_del2           =   2.6007375306879E-09
(PID.TID 0000.0001) %MON forcing_fu_max               =   8.7044073230131E-01
(PID.TID 0000.0001) %MON forcing_fu_min               =  -3.8538307155043E-01
(PID.TID 0000.0001) %MON forcing_fu_mean              =   6.4471902218382E-02
(PID.TID 0000.0001) %MON forcing_fu_sd                =   1.5472057551684E-01
(PID.TID 0000.0001) %MON forcing_fu_del2              =   3.7436554847773E-07
(PID.TID 0000.0001) %MON forcing_fv_max               =   4.2951470376228E-01
(PID.TID 0000.0001) %MON forcing_fv_min               =  -5.7428216138321E-01
(PID.TID 0000.0001) %MON forcing_fv_mean              =   1.0838840368941E-02
(PID.TID 0000.0001) %MON forcing_fv_sd                =   1.0218730032608E-01
(PID.TID 0000.0001) %MON forcing_fv_del2              =   3.1247366700987E-07
(PID.TID 0000.0001) %MON trAdv_CFL_u_max              =   4.6890864127128E-02
(PID.TID 0000.0001) %MON trAdv_CFL_v_max              =   5.4572449106645E-02
(PID.TID 0000.0001) %MON trAdv_CFL_w_max              =   2.3913510634962E-01
(PID.TID 0000.0001) %MON advcfl_uvel_max              =   4.6890863531649E-02
(PID.TID 0000.0001) %MON advcfl_vvel_max              =   5.4591518042041E-02
(PID.TID 0000.0001) %MON advcfl_wvel_max              =   2.3796172506233E-01
(PID.TID 0000.0001) %MON advcfl_W_hf_max              =   2.3913510634962E-01
(PID.TID 0000.0001) %MON pe_b_mean                    =  -5.2824560257328E-04
(PID.TID 0000.0001) %MON ke_max                       =   4.5325841221020E-01
(PID.TID 0000.0001) %MON ke_mean                      =   3.1284161385945E-04
(PID.TID 0000.0001) %MON ke_vol                       =   4.5818637279721E+16
(PID.TID 0000.0001) %MON vort_r_min                   =  -3.2988957040176E-04
(PID.TID 0000.0001) %MON vort_r_max                   =   3.6312054132216E-04
(PID.TID 0000.0001) %MON vort_a_mean                  =   8.2147592586406E-05
(PID.TID 0000.0001) %MON vort_a_sd                    =   9.7087159837312E-06
(PID.TID 0000.0001) %MON vort_p_mean                  =   8.4848812892551E-05
(PID.TID 0000.0001) %MON vort_p_sd                    =   3.5008379935338E-05
(PID.TID 0000.0001) %MON surfExpan_theta_mean         =   8.9427633815497E-05
(PID.TID 0000.0001) %MON surfExpan_salt_mean          =   5.4141263825229E-05
(PID.TID 0000.0001) // =======================================================
(PID.TID 0000.0001) // End MONITOR dynamic field statistics
(PID.TID 0000.0001) // =======================================================
(PID.TID 0000.0001) // =======================================================
(PID.TID 0000.0001) // Begin OBCS MONITOR field statistics
(PID.TID 0000.0001) // =======================================================
(PID.TID 0000.0001) %MON obc_N_vVel_max               =   8.1326987573124E-02
(PID.TID 0000.0001) %MON obc_N_vVel_min               =  -5.8392436509510E-01
(PID.TID 0000.0001) %MON obc_N_vVel_mean              =  -7.1756568170385E-03
(PID.TID 0000.0001) %MON obc_N_vVel_sd                =   1.6774260087569E-02
(PID.TID 0000.0001) %MON obc_N_vVel_Int               =  -1.0272013341105E+08
(PID.TID 0000.0001) %MON obc_S_vVel_max               =   6.4974685172075E-01
(PID.TID 0000.0001) %MON obc_S_vVel_min               =  -1.0635793728124E-01
(PID.TID 0000.0001) %MON obc_S_vVel_mean              =  -2.9359635497352E-03
(PID.TID 0000.0001) %MON obc_S_vVel_sd                =   1.9896119012237E-02
(PID.TID 0000.0001) %MON obc_S_vVel_Int               =  -8.9379243787945E+07
(PID.TID 0000.0001) %MON obc_N_theta_max              =   1.6146095211909E+01
(PID.TID 0000.0001) %MON obc_N_theta_min              =   1.6871453121376E+00
(PID.TID 0000.0001) %MON obc_N_theta_mean             =   5.2225778450576E+00
(PID.TID 0000.0001) %MON obc_N_theta_sd               =   3.6303663195535E+00
(PID.TID 0000.0001) %MON obc_S_theta_max              =   2.5392377231971E+01
(PID.TID 0000.0001) %MON obc_S_theta_min              =   1.5161807361651E+00
(PID.TID 0000.0001) %MON obc_S_theta_mean             =   5.4082390963916E+00
(PID.TID 0000.0001) %MON obc_S_theta_sd               =   5.1183013056641E+00
(PID.TID 0000.0001) %MON obc_N_salt_max               =   3.6395896611354E+01
(PID.TID 0000.0001) %MON obc_N_salt_min               =   3.0617718449200E+01
(PID.TID 0000.0001) %MON obc_N_salt_mean              =   3.5063772789531E+01
(PID.TID 0000.0001) %MON obc_N_salt_sd                =   3.9119677671649E-01
(PID.TID 0000.0001) %MON obc_S_salt_max               =   3.7332383238723E+01
(PID.TID 0000.0001) %MON obc_S_salt_min               =   3.4852181402646E+01
(PID.TID 0000.0001) %MON obc_S_salt_mean              =   3.5186251307258E+01
(PID.TID 0000.0001) %MON obc_S_salt_sd                =   5.1365453037789E-01
(PID.TID 0000.0001) // =======================================================
(PID.TID 0000.0001) // End OBCS MONITOR field statistics
(PID.TID 0000.0001) // =======================================================
 Computing Diagnostic #     23  ETAN         Counter:      15   Parms: SM      M1      
 Computing Diagnostic #     80  oceTAUX      Counter:      15   Parms: UU      U1      
           Vector  Mate for  oceTAUX      Diagnostic #     81  oceTAUY  exists 
 Computing Diagnostic #     81  oceTAUY      Counter:      15   Parms: VV      U1      
           Vector  Mate for  oceTAUY      Diagnostic #     80  oceTAUX  exists 
 Computing Diagnostic #    185  EXFuwind     Counter:      15   Parms: UM      U1      
 Computing Diagnostic #    186  EXFvwind     Counter:      15   Parms: VM      U1      
 Computing Diagnostic #     26  THETA        Counter:      15   Parms: SMR     MR      
 Computing Diagnostic #     27  SALT         Counter:      15   Parms: SMR     MR      
 Computing Diagnostic #     30  UVEL         Counter:      15   Parms: UUR     MR      
           Vector  Mate for  UVEL         Diagnostic #     31  VVEL     exists 
 Computing Diagnostic #     31  VVEL         Counter:      15   Parms: VVR     MR      
           Vector  Mate for  VVEL         Diagnostic #     30  UVEL     exists 
 Computing Diagnostic #     32  WVEL         Counter:      15   Parms: WM      LR      
 Computing Diagnostic #     36  UVELSQ       Counter:      15   Parms: UURP    MR      
           Vector  Mate for  UVELSQ       Diagnostic #     37  VVELSQ   exists 
 Computing Diagnostic #     37  VVELSQ       Counter:      15   Parms: VVRP    MR      
           Vector  Mate for  VVELSQ       Diagnostic #     36  UVELSQ   exists 
 Computing Diagnostic #     52  WTHMASS      Counter:      15   Parms: WM      LR      
 Computing Diagnostic #     55  WSLTMASS     Counter:      15   Parms: WM      LR      
(PID.TID 0000.0001) %CHECKPOINT        15 ckptA
(PID.TID 0000.0001)   Seconds in section "ALL                    [THE_MODEL_MAIN]":
(PID.TID 0000.0001)           User time:   59.5023490190506
(PID.TID 0000.0001)         System time:  0.000000000000000E+000
(PID.TID 0000.0001)     Wall clock time:   68.6977169513702
(PID.TID 0000.0001)          No. starts:           1
(PID.TID 0000.0001)           No. stops:           1
(PID.TID 0000.0001)   Seconds in section "INITIALISE_FIXED       [THE_MODEL_MAIN]":
(PID.TID 0000.0001)           User time:   28.1467425823212
(PID.TID 0000.0001)         System time:  0.000000000000000E+000
(PID.TID 0000.0001)     Wall clock time:   29.5506911277771
(PID.TID 0000.0001)          No. starts:           1
(PID.TID 0000.0001)           No. stops:           1
(PID.TID 0000.0001)   Seconds in section "THE_MAIN_LOOP          [THE_MODEL_MAIN]":
(PID.TID 0000.0001)           User time:   31.3555736541748
(PID.TID 0000.0001)         System time:  0.000000000000000E+000
(PID.TID 0000.0001)     Wall clock time:   39.1469981670380
(PID.TID 0000.0001)          No. starts:           1
(PID.TID 0000.0001)           No. stops:           1
(PID.TID 0000.0001)   Seconds in section "INITIALISE_VARIA    [THE_MAIN_LOOP]":
(PID.TID 0000.0001)           User time:   2.42164230346680
(PID.TID 0000.0001)         System time:  0.000000000000000E+000
(PID.TID 0000.0001)     Wall clock time:   4.56785488128662
(PID.TID 0000.0001)          No. starts:           1
(PID.TID 0000.0001)           No. stops:           1
(PID.TID 0000.0001)   Seconds in section "MAIN LOOP           [THE_MAIN_LOOP]":
(PID.TID 0000.0001)           User time:   28.9339122772217
(PID.TID 0000.0001)         System time:  0.000000000000000E+000
(PID.TID 0000.0001)     Wall clock time:   34.5791230201721
(PID.TID 0000.0001)          No. starts:           1
(PID.TID 0000.0001)           No. stops:           1
(PID.TID 0000.0001)   Seconds in section "MAIN_DO_LOOP        [THE_MAIN_LOOP]":
(PID.TID 0000.0001)           User time:   28.9338302612305
(PID.TID 0000.0001)         System time:  0.000000000000000E+000
(PID.TID 0000.0001)     Wall clock time:   34.5790302753448
(PID.TID 0000.0001)          No. starts:          15
(PID.TID 0000.0001)           No. stops:          15
(PID.TID 0000.0001)   Seconds in section "FORWARD_STEP        [MAIN_DO_LOOP]":
(PID.TID 0000.0001)           User time:   28.9336109161377
(PID.TID 0000.0001)         System time:  0.000000000000000E+000
(PID.TID 0000.0001)     Wall clock time:   34.5788321495056
(PID.TID 0000.0001)          No. starts:          15
(PID.TID 0000.0001)           No. stops:          15
(PID.TID 0000.0001)   Seconds in section "DO_STATEVARS_DIAGS  [FORWARD_STEP]":
(PID.TID 0000.0001)           User time:  0.809371948242188
(PID.TID 0000.0001)         System time:  0.000000000000000E+000
(PID.TID 0000.0001)     Wall clock time:  0.824865341186523
(PID.TID 0000.0001)          No. starts:          45
(PID.TID 0000.0001)           No. stops:          45
(PID.TID 0000.0001)   Seconds in section "LOAD_FIELDS_DRIVER  [FORWARD_STEP]":
(PID.TID 0000.0001)           User time:  0.320127487182617
(PID.TID 0000.0001)         System time:  0.000000000000000E+000
(PID.TID 0000.0001)     Wall clock time:  0.998878955841064
(PID.TID 0000.0001)          No. starts:          15
(PID.TID 0000.0001)           No. stops:          15
(PID.TID 0000.0001)   Seconds in section "EXF_GETFORCING     [LOAD_FLDS_DRIVER]":
(PID.TID 0000.0001)           User time:  0.319744110107422
(PID.TID 0000.0001)         System time:  0.000000000000000E+000
(PID.TID 0000.0001)     Wall clock time:  0.998194932937622
(PID.TID 0000.0001)          No. starts:          15
(PID.TID 0000.0001)           No. stops:          15
(PID.TID 0000.0001)   Seconds in section "EXTERNAL_FLDS_LOAD [LOAD_FLDS_DRIVER]":
(PID.TID 0000.0001)           User time:  7.247924804687500E-005
(PID.TID 0000.0001)         System time:  0.000000000000000E+000
(PID.TID 0000.0001)     Wall clock time:  3.926753997802734E-004
(PID.TID 0000.0001)          No. starts:          15
(PID.TID 0000.0001)           No. stops:          15
(PID.TID 0000.0001)   Seconds in section "DO_ATMOSPHERIC_PHYS [FORWARD_STEP]":
(PID.TID 0000.0001)           User time:  7.629394531250000E-005
(PID.TID 0000.0001)         System time:  0.000000000000000E+000
(PID.TID 0000.0001)     Wall clock time:  8.797645568847656E-005
(PID.TID 0000.0001)          No. starts:          15
(PID.TID 0000.0001)           No. stops:          15
(PID.TID 0000.0001)   Seconds in section "DO_OCEANIC_PHYS     [FORWARD_STEP]":
(PID.TID 0000.0001)           User time:   4.27989196777344
(PID.TID 0000.0001)         System time:  0.000000000000000E+000
(PID.TID 0000.0001)     Wall clock time:   4.31330966949463
(PID.TID 0000.0001)          No. starts:          15
(PID.TID 0000.0001)           No. stops:          15
(PID.TID 0000.0001)   Seconds in section "KPP_CALC [DO_OCEANIC_PHYS]":
(PID.TID 0000.0001)           User time:   3.64839935302734
(PID.TID 0000.0001)         System time:  0.000000000000000E+000
(PID.TID 0000.0001)     Wall clock time:   3.67093586921692
(PID.TID 0000.0001)          No. starts:         150
(PID.TID 0000.0001)           No. stops:         150
(PID.TID 0000.0001)   Seconds in section "DYNAMICS            [FORWARD_STEP]":
(PID.TID 0000.0001)           User time:   4.21696472167969
(PID.TID 0000.0001)         System time:  0.000000000000000E+000
(PID.TID 0000.0001)     Wall clock time:   4.23533058166504
(PID.TID 0000.0001)          No. starts:          15
(PID.TID 0000.0001)           No. stops:          15
(PID.TID 0000.0001)   Seconds in section "UPDATE_SURF_DR      [FORWARD_STEP]":
(PID.TID 0000.0001)           User time:  9.570693969726562E-002
(PID.TID 0000.0001)         System time:  0.000000000000000E+000
(PID.TID 0000.0001)     Wall clock time:  9.597516059875488E-002
(PID.TID 0000.0001)          No. starts:          15
(PID.TID 0000.0001)           No. stops:          15
(PID.TID 0000.0001)   Seconds in section "SOLVE_FOR_PRESSURE  [FORWARD_STEP]":
(PID.TID 0000.0001)           User time:   1.86520004272461
(PID.TID 0000.0001)         System time:  0.000000000000000E+000
(PID.TID 0000.0001)     Wall clock time:   1.87418699264526
(PID.TID 0000.0001)          No. starts:          15
(PID.TID 0000.0001)           No. stops:          15
(PID.TID 0000.0001)   Seconds in section "MOM_CORRECTION_STEP [FORWARD_STEP]":
(PID.TID 0000.0001)           User time:  0.254795074462891
(PID.TID 0000.0001)         System time:  0.000000000000000E+000
(PID.TID 0000.0001)     Wall clock time:  0.256453990936279
(PID.TID 0000.0001)          No. starts:          15
(PID.TID 0000.0001)           No. stops:          15
(PID.TID 0000.0001)   Seconds in section "INTEGR_CONTINUITY   [FORWARD_STEP]":
(PID.TID 0000.0001)           User time:  0.274864196777344
(PID.TID 0000.0001)         System time:  0.000000000000000E+000
(PID.TID 0000.0001)     Wall clock time:  0.275897264480591
(PID.TID 0000.0001)          No. starts:          15
(PID.TID 0000.0001)           No. stops:          15
(PID.TID 0000.0001)   Seconds in section "BLOCKING_EXCHANGES  [FORWARD_STEP]":
(PID.TID 0000.0001)           User time:   1.61080169677734
(PID.TID 0000.0001)         System time:  0.000000000000000E+000
(PID.TID 0000.0001)     Wall clock time:   1.65419006347656
(PID.TID 0000.0001)          No. starts:          30
(PID.TID 0000.0001)           No. stops:          30
(PID.TID 0000.0001)   Seconds in section "THERMODYNAMICS      [FORWARD_STEP]":
(PID.TID 0000.0001)           User time:   5.87688064575195
(PID.TID 0000.0001)         System time:  0.000000000000000E+000
(PID.TID 0000.0001)     Wall clock time:   5.89969110488892
(PID.TID 0000.0001)          No. starts:          15
(PID.TID 0000.0001)           No. stops:          15
(PID.TID 0000.0001)   Seconds in section "TRC_CORRECTION_STEP [FORWARD_STEP]":
(PID.TID 0000.0001)           User time:  9.918212890625000E-005
(PID.TID 0000.0001)         System time:  0.000000000000000E+000
(PID.TID 0000.0001)     Wall clock time:  9.703636169433594E-005
(PID.TID 0000.0001)          No. starts:          15
(PID.TID 0000.0001)           No. stops:          15
(PID.TID 0000.0001)   Seconds in section "MONITOR             [FORWARD_STEP]":
(PID.TID 0000.0001)           User time:   1.32093429565430
(PID.TID 0000.0001)         System time:  0.000000000000000E+000
(PID.TID 0000.0001)     Wall clock time:   1.32963895797729
(PID.TID 0000.0001)          No. starts:          15
(PID.TID 0000.0001)           No. stops:          15
(PID.TID 0000.0001)   Seconds in section "DO_THE_MODEL_IO     [FORWARD_STEP]":
(PID.TID 0000.0001)           User time:   4.02762222290039
(PID.TID 0000.0001)         System time:  0.000000000000000E+000
(PID.TID 0000.0001)     Wall clock time:   6.54444599151611
(PID.TID 0000.0001)          No. starts:          15
(PID.TID 0000.0001)           No. stops:          15
(PID.TID 0000.0001)   Seconds in section "DO_WRITE_PICKUP     [FORWARD_STEP]":
(PID.TID 0000.0001)           User time:   3.97785949707031
(PID.TID 0000.0001)         System time:  0.000000000000000E+000
(PID.TID 0000.0001)     Wall clock time:   6.26767206192017
(PID.TID 0000.0001)          No. starts:          15
(PID.TID 0000.0001)           No. stops:          15
(PID.TID 0000.0001) // ======================================================
(PID.TID 0000.0001) // Tile <-> Tile communication statistics
(PID.TID 0000.0001) // ======================================================
(PID.TID 0000.0001) // o Tile number: 000001
(PID.TID 0000.0001) //         No. X exchanges =              0
(PID.TID 0000.0001) //            Max. X spins =              0
(PID.TID 0000.0001) //            Min. X spins =     1000000000
(PID.TID 0000.0001) //          Total. X spins =              0
(PID.TID 0000.0001) //            Avg. X spins =       0.00E+00
(PID.TID 0000.0001) //         No. Y exchanges =              0
(PID.TID 0000.0001) //            Max. Y spins =              0
(PID.TID 0000.0001) //            Min. Y spins =     1000000000
(PID.TID 0000.0001) //          Total. Y spins =              0
(PID.TID 0000.0001) //            Avg. Y spins =       0.00E+00
(PID.TID 0000.0001) // o Tile number: 000002
(PID.TID 0000.0001) //         No. X exchanges =              0
(PID.TID 0000.0001) //            Max. X spins =              0
(PID.TID 0000.0001) //            Min. X spins =     1000000000
(PID.TID 0000.0001) //          Total. X spins =              0
(PID.TID 0000.0001) //            Avg. X spins =       0.00E+00
(PID.TID 0000.0001) //         No. Y exchanges =              0
(PID.TID 0000.0001) //            Max. Y spins =              0
(PID.TID 0000.0001) //            Min. Y spins =     1000000000
(PID.TID 0000.0001) //          Total. Y spins =              0
(PID.TID 0000.0001) //            Avg. Y spins =       0.00E+00
(PID.TID 0000.0001) // o Tile number: 000003
(PID.TID 0000.0001) //         No. X exchanges =              0
(PID.TID 0000.0001) //            Max. X spins =              0
(PID.TID 0000.0001) //            Min. X spins =     1000000000
(PID.TID 0000.0001) //          Total. X spins =              0
(PID.TID 0000.0001) //            Avg. X spins =       0.00E+00
(PID.TID 0000.0001) //         No. Y exchanges =              0
(PID.TID 0000.0001) //            Max. Y spins =              0
(PID.TID 0000.0001) //            Min. Y spins =     1000000000
(PID.TID 0000.0001) //          Total. Y spins =              0
(PID.TID 0000.0001) //            Avg. Y spins =       0.00E+00
(PID.TID 0000.0001) // o Tile number: 000004
(PID.TID 0000.0001) //         No. X exchanges =              0
(PID.TID 0000.0001) //            Max. X spins =              0
(PID.TID 0000.0001) //            Min. X spins =     1000000000
(PID.TID 0000.0001) //          Total. X spins =              0
(PID.TID 0000.0001) //            Avg. X spins =       0.00E+00
(PID.TID 0000.0001) //         No. Y exchanges =              0
(PID.TID 0000.0001) //            Max. Y spins =              0
(PID.TID 0000.0001) //            Min. Y spins =     1000000000
(PID.TID 0000.0001) //          Total. Y spins =              0
(PID.TID 0000.0001) //            Avg. Y spins =       0.00E+00
(PID.TID 0000.0001) // o Tile number: 000005
(PID.TID 0000.0001) //         No. X exchanges =              0
(PID.TID 0000.0001) //            Max. X spins =              0
(PID.TID 0000.0001) //            Min. X spins =     1000000000
(PID.TID 0000.0001) //          Total. X spins =              0
(PID.TID 0000.0001) //            Avg. X spins =       0.00E+00
(PID.TID 0000.0001) //         No. Y exchanges =              0
(PID.TID 0000.0001) //            Max. Y spins =              0
(PID.TID 0000.0001) //            Min. Y spins =     1000000000
(PID.TID 0000.0001) //          Total. Y spins =              0
(PID.TID 0000.0001) //            Avg. Y spins =       0.00E+00
(PID.TID 0000.0001) // o Tile number: 000006
(PID.TID 0000.0001) //         No. X exchanges =              0
(PID.TID 0000.0001) //            Max. X spins =              0
(PID.TID 0000.0001) //            Min. X spins =     1000000000
(PID.TID 0000.0001) //          Total. X spins =              0
(PID.TID 0000.0001) //            Avg. X spins =       0.00E+00
(PID.TID 0000.0001) //         No. Y exchanges =              0
(PID.TID 0000.0001) //            Max. Y spins =              0
(PID.TID 0000.0001) //            Min. Y spins =     1000000000
(PID.TID 0000.0001) //          Total. Y spins =              0
(PID.TID 0000.0001) //            Avg. Y spins =       0.00E+00
(PID.TID 0000.0001) // o Tile number: 000007
(PID.TID 0000.0001) //         No. X exchanges =              0
(PID.TID 0000.0001) //            Max. X spins =              0
(PID.TID 0000.0001) //            Min. X spins =     1000000000
(PID.TID 0000.0001) //          Total. X spins =              0
(PID.TID 0000.0001) //            Avg. X spins =       0.00E+00
(PID.TID 0000.0001) //         No. Y exchanges =              0
(PID.TID 0000.0001) //            Max. Y spins =              0
(PID.TID 0000.0001) //            Min. Y spins =     1000000000
(PID.TID 0000.0001) //          Total. Y spins =              0
(PID.TID 0000.0001) //            Avg. Y spins =       0.00E+00
(PID.TID 0000.0001) // o Tile number: 000008
(PID.TID 0000.0001) //         No. X exchanges =              0
(PID.TID 0000.0001) //            Max. X spins =              0
(PID.TID 0000.0001) //            Min. X spins =     1000000000
(PID.TID 0000.0001) //          Total. X spins =              0
(PID.TID 0000.0001) //            Avg. X spins =       0.00E+00
(PID.TID 0000.0001) //         No. Y exchanges =              0
(PID.TID 0000.0001) //            Max. Y spins =              0
(PID.TID 0000.0001) //            Min. Y spins =     1000000000
(PID.TID 0000.0001) //          Total. Y spins =              0
(PID.TID 0000.0001) //            Avg. Y spins =       0.00E+00
(PID.TID 0000.0001) // o Tile number: 000009
(PID.TID 0000.0001) //         No. X exchanges =              0
(PID.TID 0000.0001) //            Max. X spins =              0
(PID.TID 0000.0001) //            Min. X spins =     1000000000
(PID.TID 0000.0001) //          Total. X spins =              0
(PID.TID 0000.0001) //            Avg. X spins =       0.00E+00
(PID.TID 0000.0001) //         No. Y exchanges =              0
(PID.TID 0000.0001) //            Max. Y spins =              0
(PID.TID 0000.0001) //            Min. Y spins =     1000000000
(PID.TID 0000.0001) //          Total. Y spins =              0
(PID.TID 0000.0001) //            Avg. Y spins =       0.00E+00
(PID.TID 0000.0001) // o Tile number: 000010
(PID.TID 0000.0001) //         No. X exchanges =              0
(PID.TID 0000.0001) //            Max. X spins =              0
(PID.TID 0000.0001) //            Min. X spins =     1000000000
(PID.TID 0000.0001) //          Total. X spins =              0
(PID.TID 0000.0001) //            Avg. X spins =       0.00E+00
(PID.TID 0000.0001) //         No. Y exchanges =              0
(PID.TID 0000.0001) //            Max. Y spins =              0
(PID.TID 0000.0001) //            Min. Y spins =     1000000000
(PID.TID 0000.0001) //          Total. Y spins =              0
(PID.TID 0000.0001) //            Avg. Y spins =       0.00E+00
(PID.TID 0000.0001) // o Thread number: 000001
(PID.TID 0000.0001) //            No. barriers =          70766
(PID.TID 0000.0001) //      Max. barrier spins =              1
(PID.TID 0000.0001) //      Min. barrier spins =              1
(PID.TID 0000.0001) //     Total barrier spins =          70766
(PID.TID 0000.0001) //      Avg. barrier spins =       1.00E+00
PROGRAM MAIN: Execution ended Normally
