(PID.TID 0000.0001) 
(PID.TID 0000.0001) // ======================================================
(PID.TID 0000.0001) //                      MITgcm UV
(PID.TID 0000.0001) //                      =========
(PID.TID 0000.0001) // ======================================================
(PID.TID 0000.0001) // execution environment starting up...
(PID.TID 0000.0001) 
(PID.TID 0000.0001) // MITgcmUV version:  checkpoint67c
(PID.TID 0000.0001) // Build user:        dmenemen
(PID.TID 0000.0001) // Build host:        r3i3n8
(PID.TID 0000.0001) // Build date:        Fri Jul 20 19:41:21 PDT 2018
(PID.TID 0000.0001) 
(PID.TID 0000.0001) // =======================================================
(PID.TID 0000.0001) // Execution Environment parameter file "eedata"
(PID.TID 0000.0001) // =======================================================
(PID.TID 0000.0001) ># Example "eedata" file
(PID.TID 0000.0001) ># Lines beginning "#" are comments
(PID.TID 0000.0001) ># nTx - No. threads per process in X
(PID.TID 0000.0001) ># nTy - No. threads per process in Y
(PID.TID 0000.0001) > &EEPARMS
(PID.TID 0000.0001) > useCubedSphereExchange=.TRUE.,
(PID.TID 0000.0001) > nTx=1,
(PID.TID 0000.0001) > nTy=1,
(PID.TID 0000.0001) ># debugMode=.TRUE.,
(PID.TID 0000.0001) > /
(PID.TID 0000.0001) ># Note: Some systems use & as the
(PID.TID 0000.0001) ># namelist terminator. Other systems
(PID.TID 0000.0001) ># use a / character (as shown here).
(PID.TID 0000.0001) 
(PID.TID 0000.0001) // =======================================================
(PID.TID 0000.0001) // Computational Grid Specification ( see files "SIZE.h" )
(PID.TID 0000.0001) //                                  ( and "eedata"       )
(PID.TID 0000.0001) // =======================================================
(PID.TID 0000.0001)      nPx =  118 ; /* No. processes in X */
(PID.TID 0000.0001)      nPy =    1 ; /* No. processes in Y */
(PID.TID 0000.0001)      nSx =    1 ; /* No. tiles in X per process */
(PID.TID 0000.0001)      nSy =    1 ; /* No. tiles in Y per process */
(PID.TID 0000.0001)      sNx =   90 ; /* Tile size in X */
(PID.TID 0000.0001)      sNy =   90 ; /* Tile size in Y */
(PID.TID 0000.0001)      OLx =    8 ; /* Tile overlap distance in X */
(PID.TID 0000.0001)      OLy =    8 ; /* Tile overlap distance in Y */
(PID.TID 0000.0001)      nTx =    1 ; /* No. threads in X per process */
(PID.TID 0000.0001)      nTy =    1 ; /* No. threads in Y per process */
(PID.TID 0000.0001)       Nr =  100 ; /* No. levels in the vertical   */
(PID.TID 0000.0001)       Nx =10620 ; /* Total domain size in X ( = nPx*nSx*sNx ) */
(PID.TID 0000.0001)       Ny =   90 ; /* Total domain size in Y ( = nPy*nSy*sNy ) */
(PID.TID 0000.0001)   nTiles =    1 ; /* Total no. tiles per process ( = nSx*nSy ) */
(PID.TID 0000.0001)   nProcs =  118 ; /* Total no. processes ( = nPx*nPy ) */
(PID.TID 0000.0001) nThreads =    1 ; /* Total no. threads per process ( = nTx*nTy ) */
(PID.TID 0000.0001) usingMPI =    T ; /* Flag used to control whether MPI is in use */
(PID.TID 0000.0001)                   /*  note: To execute a program with MPI calls */
(PID.TID 0000.0001)                   /*  it must be launched appropriately e.g     */
(PID.TID 0000.0001)                   /*  "mpirun -np 64 ......"                    */
(PID.TID 0000.0001) useCoupler=    F ;/* Flag used to control communications with   */
(PID.TID 0000.0001)                   /*  other model components, through a coupler */
(PID.TID 0000.0001) debugMode =    F ; /* print debug msg. (sequence of S/R calls)  */
(PID.TID 0000.0001) printMapIncludesZeros=    F ; /* print zeros in Std.Output maps */
(PID.TID 0000.0001) maxLengthPrt1D=   65 /* maxLength of 1D array printed to StdOut */
(PID.TID 0000.0001) 
(PID.TID 0000.0001) ======= Starting MPI parallel Run =========
(PID.TID 0000.0001)  My Processor Name (len:  6 ) = r3i3n8
(PID.TID 0000.0001)  Located at (  0,  0) on processor grid (0:117,0:  0)
(PID.TID 0000.0001)  Origin at  (     1,     1) on global grid (1: 10620,1:    90)
(PID.TID 0000.0001)  North neighbor = processor 0000
(PID.TID 0000.0001)  South neighbor = processor 0000
(PID.TID 0000.0001)   East neighbor = processor 0001
(PID.TID 0000.0001)   West neighbor = processor 0117
(PID.TID 0000.0001) // ======================================================
(PID.TID 0000.0001) // Mapping of tiles to threads
(PID.TID 0000.0001) // ======================================================
(PID.TID 0000.0001) // -o- Thread   1, tiles (   1:   1,   1:   1)
(PID.TID 0000.0001) 
(PID.TID 0000.0001) W2_READPARMS: opening data.exch2
(PID.TID 0000.0001)  OPEN_COPY_DATA_FILE: opening file data.exch2
(PID.TID 0000.0001) // =======================================================
(PID.TID 0000.0001) // Parameter file "data.exch2"
(PID.TID 0000.0001) // =======================================================
(PID.TID 0000.0001) ># EXCH2 Package: Wrapper-2 User Choice
(PID.TID 0000.0001) >#--------------------
(PID.TID 0000.0001) >#  preDefTopol   :: pre-defined Topology selector:
(PID.TID 0000.0001) >#                :: = 0 : topology defined from processing "data.exch2";
(PID.TID 0000.0001) >#                :: = 1 : simple, single facet topology;
(PID.TID 0000.0001) >#                :: = 2 : customized topology (w2_set_myown_facets)
(PID.TID 0000.0001) >#                :: = 3 : 6-facet Cube (3 face-dims: nRed, nGreen, nBlue).
(PID.TID 0000.0001) >#  dimsFacets    :: facet pair of dimensions (n1x,n1y, n2x,n2y ...)
(PID.TID 0000.0001) >#  facetEdgeLink :: Face-Edge connectivity map:
(PID.TID 0000.0001) >#    facetEdgeLink(i,j)=XX.1 : face(j)-edge(i) (i=1,2,3,4 <==> N,S,E,W)
(PID.TID 0000.0001) >#    is connected to Northern edge of face "XX" ; similarly,
(PID.TID 0000.0001) >#    = XX.2 : to Southern.E, XX.3 = Eastern.E, XX.4 = Western.E of face "XX"
(PID.TID 0000.0001) >#  blankList     :: List of "blank" tiles
(PID.TID 0000.0001) >#  W2_mapIO      :: global map IO selector (-1 = old type ; 0 = 1 long line in X
(PID.TID 0000.0001) >#                :: 1 = compact, mostly in Y dir)
(PID.TID 0000.0001) >#  W2_printMsg   :: option for information messages printing
(PID.TID 0000.0001) >#                :: <0 : write to log file ; =0 : minimum print ;
(PID.TID 0000.0001) >#                :: =1 : no duplicated print ; =2 : all processes do print
(PID.TID 0000.0001) >#--------------------
(PID.TID 0000.0001) > &W2_EXCH2_PARM01
(PID.TID 0000.0001) >  W2_printMsg= 0,
(PID.TID 0000.0001) >  W2_mapIO   = 1,
(PID.TID 0000.0001) >#
(PID.TID 0000.0001) >#-- 5 facets llc_270 topology (drop facet 6 and its connection):
(PID.TID 0000.0001) >  preDefTopol = 0,
(PID.TID 0000.0001) >  dimsFacets = 1080, 540, 0, 0, 0, 0, 0, 0, 540, 1080, 0, 0,
(PID.TID 0000.0001) >  facetEdgeLink(1,1)= 0. , 0. , 0. , 5.1,
(PID.TID 0000.0001) >  facetEdgeLink(1,2)= 0. , 0. , 0. , 0. ,
(PID.TID 0000.0001) >  facetEdgeLink(1,3)= 0. , 0. , 0. , 0. ,
(PID.TID 0000.0001) >  facetEdgeLink(1,4)= 0. , 0. , 0. , 0. ,
(PID.TID 0000.0001) >  facetEdgeLink(1,5)= 1.4, 0. , 0. , 0. ,
(PID.TID 0000.0001) >  blankList = 9, 10, 11, 12, 21, 22, 23, 24, 34, 35, 36, 46, 47, 48, 57, 58, 59, 60, 69, 70, 71, 72, 73, 74, 75, 79,
(PID.TID 0000.0001) > &
(PID.TID 0000.0001) 
(PID.TID 0000.0001) W2_READPARMS: finished reading data.exch2
(PID.TID 0000.0001) W2_useE2ioLayOut=    T ;/* T: use Exch2 glob IO map; F: use model default */
(PID.TID 0000.0001) W2_mapIO        =   1 ; /* select option for Exch2 global-IO map */
(PID.TID 0000.0001) W2_printMsg     =   0 ; /* select option for printing information */
(PID.TID 0000.0001) ===== Start setting W2 TOPOLOGY:
(PID.TID 0000.0001) W2_E2SETUP: number of Active Tiles =     118
(PID.TID 0000.0001) W2_E2SETUP: number of Blank Tiles  =      26
(PID.TID 0000.0001) W2_E2SETUP: Total number of Tiles  =     144
(PID.TID 0000.0001) W2_SET_GEN_FACETS: preDefTopol=  0 selected
(PID.TID 0000.0001) W2_SET_GEN_FACETS: Number of facets =  5 (inferred from "dimsFacets")
(PID.TID 0000.0001) W2_E2SETUP: Total number of Facets =       5
(PID.TID 0000.0001) W2_SET_F2F_INDEX: index matrix for connected Facet-Edges:
(PID.TID 0000.0001) ** WARNING ** N.Edge of facet #  1 disconnected (facet_link=  0.00)
(PID.TID 0000.0001) ** WARNING ** S.Edge of facet #  1 disconnected (facet_link=  0.00)
(PID.TID 0000.0001) ** WARNING ** E.Edge of facet #  1 disconnected (facet_link=  0.00)
(PID.TID 0000.0001) ** WARNING ** N.Edge of facet #  2 disconnected (facet_link=  0.00)
(PID.TID 0000.0001) ** WARNING ** S.Edge of facet #  2 disconnected (facet_link=  0.00)
(PID.TID 0000.0001) ** WARNING ** E.Edge of facet #  2 disconnected (facet_link=  0.00)
(PID.TID 0000.0001) ** WARNING ** W.Edge of facet #  2 disconnected (facet_link=  0.00)
(PID.TID 0000.0001) ** WARNING ** N.Edge of facet #  3 disconnected (facet_link=  0.00)
(PID.TID 0000.0001) ** WARNING ** S.Edge of facet #  3 disconnected (facet_link=  0.00)
(PID.TID 0000.0001) ** WARNING ** E.Edge of facet #  3 disconnected (facet_link=  0.00)
(PID.TID 0000.0001) ** WARNING ** W.Edge of facet #  3 disconnected (facet_link=  0.00)
(PID.TID 0000.0001) ** WARNING ** N.Edge of facet #  4 disconnected (facet_link=  0.00)
(PID.TID 0000.0001) ** WARNING ** S.Edge of facet #  4 disconnected (facet_link=  0.00)
(PID.TID 0000.0001) ** WARNING ** E.Edge of facet #  4 disconnected (facet_link=  0.00)
(PID.TID 0000.0001) ** WARNING ** W.Edge of facet #  4 disconnected (facet_link=  0.00)
(PID.TID 0000.0001) ** WARNING ** S.Edge of facet #  5 disconnected (facet_link=  0.00)
(PID.TID 0000.0001) ** WARNING ** E.Edge of facet #  5 disconnected (facet_link=  0.00)
(PID.TID 0000.0001) ** WARNING ** W.Edge of facet #  5 disconnected (facet_link=  0.00)
(PID.TID 0000.0001) W2_SET_MAP_TILES: tile mapping within facet and global Map:
(PID.TID 0000.0001)  W2_mapIO =  540 (=    6*sNx)
(PID.TID 0000.0001)  Global Map (IO): X-size=     540 , Y-size=    2160
(PID.TID 0000.0001) W2_SET_MAP_TILES: tile offset within facet and global Map:
- facet  1 : X-size=  1080 , Y-size=   540 ;   72 tiles (Tx,Ty=  12,   6)
- facet  2 : X-size=     0 , Y-size=     0 ;    0 tiles (Tx,Ty=   0,   0)
- facet  3 : X-size=     0 , Y-size=     0 ;    0 tiles (Tx,Ty=   0,   0)
- facet  4 : X-size=     0 , Y-size=     0 ;    0 tiles (Tx,Ty=   0,   0)
- facet  5 : X-size=   540 , Y-size=  1080 ;   72 tiles (Tx,Ty=   6,  12)
(PID.TID 0000.0001) W2_SET_MAP_CUMSUM: setting Facet Matrix for CUMUL-SUM
(PID.TID 0000.0001) W2_SET_MAP_CUMSUM: set    1 /   2 active facets (pass,type=   1, 3)
 Facet Matrix for CUMUL-SUM (nFacets=   5, nActive=   2 ):
- facet  1 :  0  0 ,  0  0 ,  0  0 ,  0  0 ,  0  0 ,
- facet  2 :  0  0 ,  0  0 ,  0  0 ,  0  0 ,  0  0 ,
- facet  3 :  0  0 ,  0  0 ,  0  0 ,  0  0 ,  0  0 ,
- facet  4 :  0  0 ,  0  0 ,  0  0 ,  0  0 ,  0  0 ,
- facet  5 :  0  1 ,  0  0 ,  0  0 ,  0  0 ,  0 -1 ,
 missing-corner Tile for CUMUL-SUM (nTiles=   144 ): W2_tMC1=    61 , W2_tMC2=     0
(PID.TID 0000.0001) W2_SET_MAP_CUMSUM: done (skip Tile Matrix setting)
(PID.TID 0000.0001) W2_SET_TILE2TILES: tile neighbours and index connection:
(PID.TID 0000.0001) current Max.Nb.Neighbours (e.g., on tile   13 ) =  4
(PID.TID 0000.0001) ===== W2 TILE TOPOLOGY =====
(PID.TID 0000.0001)  TILE:     1 (bi,bj=   1   1 ), Nb of Neighbours =  3
(PID.TID 0000.0001)     NEIGHBOUR  1 = TILE   13 (n=  2) Comm = MSG (PROC=    9)
(PID.TID 0000.0001)     NEIGHBOUR  2 = TILE    2 (n=  3) Comm = MSG (PROC=    2)
(PID.TID 0000.0001)     NEIGHBOUR  3 = TILE  144 (n=  1) Comm = MSG (PROC=  118)
(PID.TID 0000.0001) =====       setting W2 TOPOLOGY: Done
(PID.TID 0000.0001) 
(PID.TID 0000.0001)  INI_PARMS: opening model parameter file "data"
(PID.TID 0000.0001)  OPEN_COPY_DATA_FILE: opening file data
(PID.TID 0000.0001) // =======================================================
(PID.TID 0000.0001) // Parameter file "data"
(PID.TID 0000.0001) // =======================================================
(PID.TID 0000.0001) >### Data file with primary model parameters -----------------------------------
(PID.TID 0000.0001) >#
(PID.TID 0000.0001) >### Continuous equation parameters --------------------------------------------
(PID.TID 0000.0001) > &PARM01
(PID.TID 0000.0001) >## Reference temperatures and salinities for every vertical level.
(PID.TID 0000.0001) > tRef =  18.89, 18.89, 18.89, 18.89, 18.89, 18.87, 18.85, 18.82,
(PID.TID 0000.0001) >         18.80, 18.73, 18.63, 18.49, 18.28, 18.08, 17.86, 17.63,
(PID.TID 0000.0001) >         17.40, 17.18, 16.95, 16.73, 16.52, 16.31, 16.10, 15.89,
(PID.TID 0000.0001) >         15.69, 15.49, 15.28, 15.08, 14.88, 14.67, 14.47, 14.25,
(PID.TID 0000.0001) >         14.03, 13.80, 13.55, 13.29, 13.01, 12.73, 12.42, 12.11,
(PID.TID 0000.0001) >         11.78, 11.43, 11.07, 10.70, 10.31,  9.93,  9.53,  9.11,
(PID.TID 0000.0001) >          8.71,  8.29,  7.89,  7.51,  7.13,  6.78,  6.44,  6.11,
(PID.TID 0000.0001) >          5.81,  5.51,  5.23,  4.97,  4.73,  4.51,  4.30,  4.11,
(PID.TID 0000.0001) >          3.94,  3.78,  3.63,  3.50,  3.38,  3.25,  3.14,  3.04,
(PID.TID 0000.0001) >          2.94,  2.83,  2.74,  2.64,  2.54,  2.45,  2.36,  2.27,
(PID.TID 0000.0001) >          2.19,  2.10,  2.03,  1.95,  1.86,  1.78,  1.70,  1.63,
(PID.TID 0000.0001) >          1.55,  1.48,  1.41,  1.34,  1.27,  1.20,  1.13,  1.06,
(PID.TID 0000.0001) >          1.00,  0.96,  0.93,  0.91,
(PID.TID 0000.0001) > sRef =  34.84, 34.84, 34.84, 34.84, 34.84, 34.84, 34.85, 34.85,
(PID.TID 0000.0001) >         34.85, 34.86, 34.87, 34.88, 34.90, 34.91, 34.93, 34.95,
(PID.TID 0000.0001) >         34.96, 34.98, 34.99, 35.00, 35.01, 35.02, 35.03, 35.04,
(PID.TID 0000.0001) >         35.05, 35.06, 35.07, 35.07, 35.07, 35.07, 35.07, 35.07,
(PID.TID 0000.0001) >         35.07, 35.06, 35.05, 35.04, 35.03, 35.02, 35.01, 34.99,
(PID.TID 0000.0001) >         34.97, 34.95, 34.92, 34.90, 34.87, 34.84, 34.81, 34.78,
(PID.TID 0000.0001) >         34.75, 34.72, 34.69, 34.67, 34.65, 34.62, 34.61, 34.60,
(PID.TID 0000.0001) >         34.59, 34.59, 34.58, 34.59, 34.59, 34.60, 34.60, 34.61,
(PID.TID 0000.0001) >         34.62, 34.63, 34.64, 34.65, 34.66, 34.67, 34.67, 34.68,
(PID.TID 0000.0001) >         34.69, 34.70, 34.71, 34.71, 34.72, 34.72, 34.73, 34.73,
(PID.TID 0000.0001) >         34.73, 34.74, 34.74, 34.74, 34.74, 34.75, 34.74, 34.74,
(PID.TID 0000.0001) >         34.74, 34.74, 34.74, 34.74, 34.74, 34.74, 34.73, 34.73,
(PID.TID 0000.0001) >         34.73, 34.73, 34.73, 34.73,
(PID.TID 0000.0001) > rhonil        = 1029.,
(PID.TID 0000.0001) > rhoConstFresh = 1000.,
(PID.TID 0000.0001) > eosType = 'JMD95Z',
(PID.TID 0000.0001) >#
(PID.TID 0000.0001) >## Various prescriptions for viscosity and diffusivity.
(PID.TID 0000.0001) > viscAr     = 5.e-04,
(PID.TID 0000.0001) > viscA4Grid = 0.0,
(PID.TID 0000.0001) > diffKhT    = 0.E0,
(PID.TID 0000.0001) > diffKhS    = 0.E0,
(PID.TID 0000.0001) > diffK4T    = 0.E10,
(PID.TID 0000.0001) > diffK4S    = 0.E10,
(PID.TID 0000.0001) > diffKrT    = 1.0e-5,
(PID.TID 0000.0001) > diffKrS    = 1.0e-5,
(PID.TID 0000.0001) > bottomDragQuadratic = 0.002,
(PID.TID 0000.0001) > no_slip_sides     = .TRUE.,
(PID.TID 0000.0001) > no_slip_bottom    = .TRUE.,
(PID.TID 0000.0001) > implicitDiffusion = .TRUE.,
(PID.TID 0000.0001) > implicitViscosity = .TRUE.,
(PID.TID 0000.0001) ># horizontal momentum closure
(PID.TID 0000.0001) > viscC4Leith   = 2.0,
(PID.TID 0000.0001) > viscC4Leithd  = 2.0,
(PID.TID 0000.0001) > viscA4GridMax = 0.8,
(PID.TID 0000.0001) >#
(PID.TID 0000.0001) >## Parameters that control numerical methods like advection schemes and
(PID.TID 0000.0001) >#  treatment of the free-surface.
(PID.TID 0000.0001) > tempAdvScheme = 7,
(PID.TID 0000.0001) > saltAdvScheme = 7,
(PID.TID 0000.0001) > implicitFreeSurface     = .TRUE.,
(PID.TID 0000.0001) > staggerTimeStep         = .TRUE.,
(PID.TID 0000.0001) > exactConserv            = .TRUE.,
(PID.TID 0000.0001) > vectorInvariantMomentum = .TRUE.,
(PID.TID 0000.0001) > useAreaViscLength       = .TRUE.,
(PID.TID 0000.0001) > highOrderVorticity      = .TRUE.,
(PID.TID 0000.0001) > multiDimAdvection       = .TRUE.,
(PID.TID 0000.0001) >#
(PID.TID 0000.0001) >## These parameters seem to be associated with the external forcing.
(PID.TID 0000.0001) > convertFW2Salt = -1.,
(PID.TID 0000.0001) > temp_EvPrRn    =  0.,
(PID.TID 0000.0001) > useRealFreshWaterFlux = .FALSE.,
(PID.TID 0000.0001) > allowFreezing         = .FALSE.,
(PID.TID 0000.0001) >#
(PID.TID 0000.0001) >## Parameters associated with bathymetry specification.
(PID.TID 0000.0001) > hFacMin   = 0.2,
(PID.TID 0000.0001) > hFacMinDr = 5.,
(PID.TID 0000.0001) >#
(PID.TID 0000.0001) >## Parameters for reading, writing, and misc numerical details.
(PID.TID 0000.0001) > globalFiles     = .TRUE.,
(PID.TID 0000.0001) > useSingleCpuIO  = .TRUE.,
(PID.TID 0000.0001) > readBinaryPrec  = 32,
(PID.TID 0000.0001) > writeBinaryPrec = 32,
(PID.TID 0000.0001) > debuglevel      = 2,
(PID.TID 0000.0001) >#
(PID.TID 0000.0001) >## Unused parameters.
(PID.TID 0000.0001) ># gravity = 9.81,
(PID.TID 0000.0001) ># viscA4Grid = 2.0E-3,
(PID.TID 0000.0001) ># viscAhGrid = 2.5E-4,
(PID.TID 0000.0001) ># bottomDraglinear    = 1.E-3,
(PID.TID 0000.0001) ># Note: nonlinFreeSurf=1 with rStar=0 breaks the code.
(PID.TID 0000.0001) ># nonlinFreeSurf = 4,
(PID.TID 0000.0001) ># select_rStar   = 1,
(PID.TID 0000.0001) ># hFacInf   = 0.1,
(PID.TID 0000.0001) ># hFacSup   = 5.,
(PID.TID 0000.0001) ># implicSurfPress = 0.6,
(PID.TID 0000.0001) ># implicDiv2DFlow = 0.6,
(PID.TID 0000.0001) ># useSingleCpuInput = .TRUE.,
(PID.TID 0000.0001) ># set to eccov4, make sure minbathy=20m first
(PID.TID 0000.0001) ># debuglevel = -1,
(PID.TID 0000.0001) ># useJamartWetPoints = .TRUE.,
(PID.TID 0000.0001) ># writeBinaryPrec=64,
(PID.TID 0000.0001) > /
(PID.TID 0000.0001) >### Elliptic solver parameters ------------------------------------------------
(PID.TID 0000.0001) > &PARM02
(PID.TID 0000.0001) > cg2dMaxIters       = 1000,
(PID.TID 0000.0001) ># cg2dTargetResidual = 1.E-8,
(PID.TID 0000.0001) > cg2dTargetResWunit = 1e-18,
(PID.TID 0000.0001) >#
(PID.TID 0000.0001) >#cg2dMaxIters       = 100,
(PID.TID 0000.0001) >#cg2dTargetResidual = 1.E-5,
(PID.TID 0000.0001) > &
(PID.TID 0000.0001) >### Time stepping parameters --------------------------------------------------
(PID.TID 0000.0001) > &PARM03
(PID.TID 0000.0001) > deltaT      =    240.,
(PID.TID 0000.0001) > nIter0      =  0,
(PID.TID 0000.0001) > nTimeSteps  =  15,
(PID.TID 0000.0001) > pChkptFreq  = 864000.,
(PID.TID 0000.0001) > monitorFreq =   240.,
(PID.TID 0000.0001) > abEps       = 0.1,
(PID.TID 0000.0001) >## It is unclear what these specify.
(PID.TID 0000.0001) > pickupStrictlyMatch = .FALSE.,
(PID.TID 0000.0001) > forcing_In_AB       = .FALSE.,
(PID.TID 0000.0001) > momDissip_In_AB     = .FALSE.,
(PID.TID 0000.0001) > dumpInitAndLast     = .FALSE.,
(PID.TID 0000.0001) > /
(PID.TID 0000.0001) >### Gridding parameters -------------------------------------------------------
(PID.TID 0000.0001) > &PARM04
(PID.TID 0000.0001) >## When using a curvilinear grid, only the vertical grid is specified.
(PID.TID 0000.0001) > usingCurvilinearGrid = .TRUE.,
(PID.TID 0000.0001) >## Specify the height of each vertical level.
(PID.TID 0000.0001) > delR =   5.00,   5.00,   5.00,   5.00,   5.00,   5.00,   5.00,   5.00,   5.00,
(PID.TID 0000.0001) >          5.00,   5.00,   5.00,   5.00,   5.00,   5.00,   5.01,   5.01,   5.02,
(PID.TID 0000.0001) >          5.04,   5.07,   5.12,   5.20,   5.31,   5.49,   5.72,   6.04,   6.45,
(PID.TID 0000.0001) >          6.97,   7.62,   8.42,   9.36,  10.46,  11.72,  13.13,  14.70,  16.40,
(PID.TID 0000.0001) >         18.24,  20.18,  22.21,  24.29,  26.43,  28.57,  30.71,  32.79,  34.82,
(PID.TID 0000.0001) >         36.76,  38.60,  40.30,  41.87,  43.28,  44.54,  45.64,  46.58,  47.38,
(PID.TID 0000.0001) >         48.03,  48.55,  48.96,  49.29,  49.53,  49.72,  49.90,  50.11,  50.41,
(PID.TID 0000.0001) >         50.92,  51.69,  52.87,  54.54,  56.79,  59.67,  63.16,  67.26,  71.83,
(PID.TID 0000.0001) >         76.83,  82.11,  87.61,  93.22,  98.91, 104.64, 110.38, 116.12, 121.87,
(PID.TID 0000.0001) >        127.63, 133.38, 139.12, 144.87, 150.63, 156.38, 162.12, 167.87, 173.63,
(PID.TID 0000.0001) >        179.38, 185.12, 190.87, 196.63, 202.38, 208.12, 213.87, 219.63, 225.38,
(PID.TID 0000.0001) >        231.12,
(PID.TID 0000.0001) > /
(PID.TID 0000.0001) ># -----------------------------------------------------------------------------
(PID.TID 0000.0001) >### Bathymetry files and initial condition files
(PID.TID 0000.0001) > &PARM05
(PID.TID 0000.0001) > bathyFile       = 'bathy.bin',
(PID.TID 0000.0001) > hydrogThetaFile = 'T0_2160x540x100.bin',
(PID.TID 0000.0001) > hydrogSaltFile  = 'S0_2160x540x100.bin',
(PID.TID 0000.0001) > uVelInitFile    = 'U0_2160x540x100.bin',
(PID.TID 0000.0001) > vVelInitFile    = 'V0_2160x540x100.bin',
(PID.TID 0000.0001) ># diffKrFile  = 'diffkr_basin_v1m9EfC_llc1080.bin',
(PID.TID 0000.0001) ># viscA4Dfile = 'visc3DblendfromrunobcsCdiv1e6_08Mar2016_aste2160.bin',
(PID.TID 0000.0001) ># viscA4Zfile = 'visc3DblendfromrunobcsCdiv1e6_08Mar2016_aste2160.bin',
(PID.TID 0000.0001) > /
(PID.TID 0000.0001) 
(PID.TID 0000.0001)  INI_PARMS ; starts to read PARM01
(PID.TID 0000.0001)  INI_PARMS ; read PARM01 : OK
(PID.TID 0000.0001)  INI_PARMS ; starts to read PARM02
(PID.TID 0000.0001)  INI_PARMS ; read PARM02 : OK
(PID.TID 0000.0001)  INI_PARMS ; starts to read PARM03
(PID.TID 0000.0001)  INI_PARMS ; read PARM03 : OK
(PID.TID 0000.0001)  INI_PARMS ; starts to read PARM04
(PID.TID 0000.0001)  INI_PARMS ; read PARM04 : OK
(PID.TID 0000.0001)  INI_PARMS ; starts to read PARM05
(PID.TID 0000.0001)  INI_PARMS ; read PARM05 : OK
(PID.TID 0000.0001)  INI_PARMS: finished reading file "data"
(PID.TID 0000.0001)  PACKAGES_BOOT: opening data.pkg
(PID.TID 0000.0001)  OPEN_COPY_DATA_FILE: opening file data.pkg
(PID.TID 0000.0001) // =======================================================
(PID.TID 0000.0001) // Parameter file "data.pkg"
(PID.TID 0000.0001) // =======================================================
(PID.TID 0000.0001) ># Packages
(PID.TID 0000.0001) > &PACKAGES
(PID.TID 0000.0001) > useCAL         = .TRUE.,
(PID.TID 0000.0001) > useEXF         = .TRUE.,
(PID.TID 0000.0001) > useKPP         = .TRUE.,
(PID.TID 0000.0001) > useDiagnostics = .TRUE.,
(PID.TID 0000.0001) > useOBCS        = .TRUE.,
(PID.TID 0000.0001) ># useProfiles=.TRUE.,
(PID.TID 0000.0001) > /
(PID.TID 0000.0001) 
(PID.TID 0000.0001)  PACKAGES_BOOT: finished reading data.pkg
(PID.TID 0000.0001)  PACKAGES_BOOT: On/Off package Summary
 --------  pkgs with a standard "usePKG" On/Off switch in "data.pkg":  --------
 pkg/obcs                 compiled   and   used ( useOBCS                  = T )
 pkg/kpp                  compiled   and   used ( useKPP                   = T )
 pkg/cal                  compiled   and   used ( useCAL                   = T )
 pkg/exf                  compiled   and   used ( useEXF                   = T )
 pkg/diagnostics          compiled   and   used ( useDiagnostics           = T )
 -------- pkgs without standard "usePKG" On/Off switch in "data.pkg":  --------
 pkg/generic_advdiff      compiled   and   used ( useGAD                   = T )
 pkg/mom_common           compiled   and   used ( momStepping              = T )
 pkg/mom_vecinv           compiled   and   used ( +vectorInvariantMomentum = T )
 pkg/monitor              compiled   and   used ( monitorFreq > 0.         = T )
 pkg/debug                compiled but not used ( debugMode                = F )
 pkg/exch2                compiled   and   used
 pkg/rw                   compiled   and   used
 pkg/mdsio                compiled   and   used
(PID.TID 0000.0001)  PACKAGES_BOOT: End of package Summary
(PID.TID 0000.0001) 
(PID.TID 0000.0001) CAL_READPARMS: opening data.cal
(PID.TID 0000.0001)  OPEN_COPY_DATA_FILE: opening file data.cal
(PID.TID 0000.0001) // =======================================================
(PID.TID 0000.0001) // Parameter file "data.cal"
(PID.TID 0000.0001) // =======================================================
(PID.TID 0000.0001) >#
(PID.TID 0000.0001) ># *******************
(PID.TID 0000.0001) ># Calendar Parameters
(PID.TID 0000.0001) ># *******************
(PID.TID 0000.0001) > &CAL_NML
(PID.TID 0000.0001) > TheCalendar='gregorian',
(PID.TID 0000.0001) > startDate_1=20030101,
(PID.TID 0000.0001) > startDate_2=000000,
(PID.TID 0000.0001) > calendarDumps = .TRUE.,
(PID.TID 0000.0001) > &
(PID.TID 0000.0001) 
(PID.TID 0000.0001) CAL_READPARMS: finished reading data.cal
(PID.TID 0000.0001) EXF_READPARMS: opening data.exf
(PID.TID 0000.0001)  OPEN_COPY_DATA_FILE: opening file data.exf
(PID.TID 0000.0001) // =======================================================
(PID.TID 0000.0001) // Parameter file "data.exf"
(PID.TID 0000.0001) // =======================================================
(PID.TID 0000.0001) ># *********************
(PID.TID 0000.0001) ># External Forcing Data
(PID.TID 0000.0001) ># *********************
(PID.TID 0000.0001) >#
(PID.TID 0000.0001) > &EXF_NML_01
(PID.TID 0000.0001) >#
(PID.TID 0000.0001) > useAtmWind        = .TRUE.,
(PID.TID 0000.0001) >#
(PID.TID 0000.0001) >#TO COMBINE WITH ALLOW_ZENITH_ANGLE:
(PID.TID 0000.0001) ># exf_albedo        = 0.1,
(PID.TID 0000.0001) ># useExfZenIncoming = .TRUE.,
(PID.TID 0000.0001) ># select_ZenAlbedo  = 1,
(PID.TID 0000.0001) >##
(PID.TID 0000.0001) ># ocean_emissivity = 0.97,
(PID.TID 0000.0001) ># ice_emissivity = 0.95,
(PID.TID 0000.0001) ># snow_emissivity = 0.95,
(PID.TID 0000.0001) >#
(PID.TID 0000.0001) ># exf_albedo        = 0.1556,
(PID.TID 0000.0001) > exf_albedo        = 0.1,
(PID.TID 0000.0001) > exf_scal_BulkCdn  = 0.9997,
(PID.TID 0000.0001) > exf_iprec         = 32,
(PID.TID 0000.0001) > exf_iprec_obcs    = 32,
(PID.TID 0000.0001) > exf_yftype        = 'RL',
(PID.TID 0000.0001) > useExfYearlyFields= .TRUE.,
(PID.TID 0000.0001) > useExfCheckRange  = .FALSE.,
(PID.TID 0000.0001) > useRelativeWind   = .TRUE.,
(PID.TID 0000.0001) > &
(PID.TID 0000.0001) >#
(PID.TID 0000.0001) > &EXF_NML_02
(PID.TID 0000.0001) > precipfile        = 'jra55/jra55_rain',
(PID.TID 0000.0001) > atempfile         = 'jra55/jra55_tmp2m_degC',
(PID.TID 0000.0001) > aqhfile           = 'jra55/jra55_spfh2m',
(PID.TID 0000.0001) > swdownfile        = 'jra55/jra55_dsw',
(PID.TID 0000.0001) > lwdownfile        = 'jra55/jra55_dlw',
(PID.TID 0000.0001) > apressurefile     = 'jra55/jra55_pres',
(PID.TID 0000.0001) > tidePotfile       = 'jra55/tide',
(PID.TID 0000.0001) > uwindfile         = 'jra55/jra55_u10m',
(PID.TID 0000.0001) > vwindfile         = 'jra55/jra55_v10m',
(PID.TID 0000.0001) > runofffile        = 'runoff1p2472-360x180x12.bin',
(PID.TID 0000.0001) >#
(PID.TID 0000.0001) > precipstartdate1  = 19790101,
(PID.TID 0000.0001) > precipstartdate2  = 013000,
(PID.TID 0000.0001) > precipperiod      = 10800.0,
(PID.TID 0000.0001) > atempstartdate1   = 19790101,
(PID.TID 0000.0001) > atempstartdate2   = 000000,
(PID.TID 0000.0001) > atempperiod       = 10800.0,
(PID.TID 0000.0001) > aqhstartdate1     = 19790101,
(PID.TID 0000.0001) > aqhstartdate2     = 000000,
(PID.TID 0000.0001) > aqhperiod         = 10800.0,
(PID.TID 0000.0001) > swdownstartdate1  = 19790101,
(PID.TID 0000.0001) > swdownstartdate2  = 013000,
(PID.TID 0000.0001) > swdownperiod      = 10800.0,
(PID.TID 0000.0001) > lwdownstartdate1  = 19790101,
(PID.TID 0000.0001) > lwdownstartdate2  = 013000,
(PID.TID 0000.0001) > lwdownperiod      = 10800.0,
(PID.TID 0000.0001) > apressurestartdate1  = 19790101,
(PID.TID 0000.0001) > apressurestartdate2  = 000000,
(PID.TID 0000.0001) > apressureperiod      = 10800.0,
(PID.TID 0000.0001) > tidePotstartdate1  = 19790101,
(PID.TID 0000.0001) > tidePotstartdate2  = 003000,
(PID.TID 0000.0001) > tidePotperiod      = 3600.0,
(PID.TID 0000.0001) > uwindstartdate1   = 19790101,
(PID.TID 0000.0001) > uwindstartdate2   = 000000,
(PID.TID 0000.0001) > uwindperiod       = 10800.0,
(PID.TID 0000.0001) > vwindstartdate1   = 19790101,
(PID.TID 0000.0001) > vwindstartdate2   = 000000,
(PID.TID 0000.0001) > vwindperiod       = 10800.0,
(PID.TID 0000.0001) ># "*period=-12" specifies monthly-mean forcing
(PID.TID 0000.0001) > runoffperiod      = -12,
(PID.TID 0000.0001) > &
(PID.TID 0000.0001) >#
(PID.TID 0000.0001) > &EXF_NML_03
(PID.TID 0000.0001) > exf_offset_atemp  = 273.15,
(PID.TID 0000.0001) > exf_inscal_swdown = -1.,
(PID.TID 0000.0001) > exf_inscal_lwdown = -1.,
(PID.TID 0000.0001) ># 1/365/24/3600 yr/s conversion, runoff [m/yr --> m/s]
(PID.TID 0000.0001) > exf_inscal_runoff = 3.1710e-08,
(PID.TID 0000.0001) ># divide by rhonil (1029 kg/m^3) to convert from Pa to m^2/s^2
(PID.TID 0000.0001) > exf_inscal_tidePot = .00097181729834791059,
(PID.TID 0000.0001) > &
(PID.TID 0000.0001) >#
(PID.TID 0000.0001) > &EXF_NML_04
(PID.TID 0000.0001) >#if in global lat/lon, need interp, comment out runoff_interpMethod
(PID.TID 0000.0001) >#if already in aste compact format, set runoff_interpMethod=0
(PID.TID 0000.0001) ># runoff_interpMethod = 0,
(PID.TID 0000.0001) >#
(PID.TID 0000.0001) > precip_lon0       = 0.0D0,
(PID.TID 0000.0001) > precip_lon_inc    = 0.5625D0,
(PID.TID 0000.0001) > precip_lat0       = -89.57009D0,
(PID.TID 0000.0001) > precip_lat_inc    = 0.556914D0, 0.560202D0, 0.560946D0, 0.561227D0, 0.561363D0,
(PID.TID 0000.0001) >                     0.561440D0, 0.561487D0, 0.561518D0, 0.561539D0, 0.561554D0,
(PID.TID 0000.0001) >                     0.561566D0, 0.561575D0, 0.561582D0, 0.561587D0, 0.561592D0,
(PID.TID 0000.0001) >                     289*0.561619268965519,
(PID.TID 0000.0001) >                     0.561592D0, 0.561587D0, 0.561582D0, 0.561575D0, 0.561566D0,
(PID.TID 0000.0001) >                     0.561554D0, 0.561539D0, 0.561518D0, 0.561487D0, 0.561440D0,
(PID.TID 0000.0001) >                     0.561363D0, 0.561227D0, 0.560946D0, 0.560202D0, 0.556914D0,
(PID.TID 0000.0001) > precip_nlon       = 640,
(PID.TID 0000.0001) > precip_nlat       = 320,
(PID.TID 0000.0001) >#
(PID.TID 0000.0001) > atemp_lon0        = 0.0D0,
(PID.TID 0000.0001) > atemp_lon_inc     = 0.5625D0,
(PID.TID 0000.0001) > atemp_lat0        = -89.57009D0,
(PID.TID 0000.0001) > atemp_lat_inc     = 0.556914D0, 0.560202D0, 0.560946D0, 0.561227D0, 0.561363D0,
(PID.TID 0000.0001) >                     0.561440D0, 0.561487D0, 0.561518D0, 0.561539D0, 0.561554D0,
(PID.TID 0000.0001) >                     0.561566D0, 0.561575D0, 0.561582D0, 0.561587D0, 0.561592D0,
(PID.TID 0000.0001) >                     289*0.561619268965519,
(PID.TID 0000.0001) >                     0.561592D0, 0.561587D0, 0.561582D0, 0.561575D0, 0.561566D0,
(PID.TID 0000.0001) >                     0.561554D0, 0.561539D0, 0.561518D0, 0.561487D0, 0.561440D0,
(PID.TID 0000.0001) >                     0.561363D0, 0.561227D0, 0.560946D0, 0.560202D0, 0.556914D0,
(PID.TID 0000.0001) > atemp_nlon        = 640,
(PID.TID 0000.0001) > atemp_nlat        = 320,
(PID.TID 0000.0001) >#
(PID.TID 0000.0001) > aqh_lon0          = 0.0D0,
(PID.TID 0000.0001) > aqh_lon_inc       = 0.5625D0,
(PID.TID 0000.0001) > aqh_lat0          = -89.57009D0,
(PID.TID 0000.0001) > aqh_lat_inc       = 0.556914D0, 0.560202D0, 0.560946D0, 0.561227D0, 0.561363D0,
(PID.TID 0000.0001) >                     0.561440D0, 0.561487D0, 0.561518D0, 0.561539D0, 0.561554D0,
(PID.TID 0000.0001) >                     0.561566D0, 0.561575D0, 0.561582D0, 0.561587D0, 0.561592D0,
(PID.TID 0000.0001) >                     289*0.561619268965519,
(PID.TID 0000.0001) >                     0.561592D0, 0.561587D0, 0.561582D0, 0.561575D0, 0.561566D0,
(PID.TID 0000.0001) >                     0.561554D0, 0.561539D0, 0.561518D0, 0.561487D0, 0.561440D0,
(PID.TID 0000.0001) >                     0.561363D0, 0.561227D0, 0.560946D0, 0.560202D0, 0.556914D0,
(PID.TID 0000.0001) > aqh_nlon          = 640,
(PID.TID 0000.0001) > aqh_nlat          = 320,
(PID.TID 0000.0001) >#
(PID.TID 0000.0001) > swdown_lon0       = 0.0D0,
(PID.TID 0000.0001) > swdown_lon_inc    = 0.5625D0,
(PID.TID 0000.0001) > swdown_lat0       = -89.57009D0,
(PID.TID 0000.0001) > swdown_lat_inc    = 0.556914D0, 0.560202D0, 0.560946D0, 0.561227D0, 0.561363D0,
(PID.TID 0000.0001) >                     0.561440D0, 0.561487D0, 0.561518D0, 0.561539D0, 0.561554D0,
(PID.TID 0000.0001) >                     0.561566D0, 0.561575D0, 0.561582D0, 0.561587D0, 0.561592D0,
(PID.TID 0000.0001) >                     289*0.561619268965519,
(PID.TID 0000.0001) >                     0.561592D0, 0.561587D0, 0.561582D0, 0.561575D0, 0.561566D0,
(PID.TID 0000.0001) >                     0.561554D0, 0.561539D0, 0.561518D0, 0.561487D0, 0.561440D0,
(PID.TID 0000.0001) >                     0.561363D0, 0.561227D0, 0.560946D0, 0.560202D0, 0.556914D0,
(PID.TID 0000.0001) > swdown_nlon       = 640,
(PID.TID 0000.0001) > swdown_nlat       = 320,
(PID.TID 0000.0001) >#
(PID.TID 0000.0001) > lwdown_lon0       = 0.0D0,
(PID.TID 0000.0001) > lwdown_lon_inc    = 0.5625D0,
(PID.TID 0000.0001) > lwdown_lat0       = -89.57009D0,
(PID.TID 0000.0001) > lwdown_lat_inc    = 0.556914D0, 0.560202D0, 0.560946D0, 0.561227D0, 0.561363D0,
(PID.TID 0000.0001) >                     0.561440D0, 0.561487D0, 0.561518D0, 0.561539D0, 0.561554D0,
(PID.TID 0000.0001) >                     0.561566D0, 0.561575D0, 0.561582D0, 0.561587D0, 0.561592D0,
(PID.TID 0000.0001) >                     289*0.561619268965519,
(PID.TID 0000.0001) >                     0.561592D0, 0.561587D0, 0.561582D0, 0.561575D0, 0.561566D0,
(PID.TID 0000.0001) >                     0.561554D0, 0.561539D0, 0.561518D0, 0.561487D0, 0.561440D0,
(PID.TID 0000.0001) >                     0.561363D0, 0.561227D0, 0.560946D0, 0.560202D0, 0.556914D0,
(PID.TID 0000.0001) > lwdown_nlon       = 640,
(PID.TID 0000.0001) > lwdown_nlat       = 320,
(PID.TID 0000.0001) >#
(PID.TID 0000.0001) > apressure_lon0       = 0.0D0,
(PID.TID 0000.0001) > apressure_lon_inc    = 0.5625D0,
(PID.TID 0000.0001) > apressure_lat0       = -89.57009D0,
(PID.TID 0000.0001) > apressure_lat_inc    = 0.556914D0, 0.560202D0, 0.560946D0, 0.561227D0, 0.561363D0,
(PID.TID 0000.0001) >                     0.561440D0, 0.561487D0, 0.561518D0, 0.561539D0, 0.561554D0,
(PID.TID 0000.0001) >                     0.561566D0, 0.561575D0, 0.561582D0, 0.561587D0, 0.561592D0,
(PID.TID 0000.0001) >                     289*0.561619268965519,
(PID.TID 0000.0001) >                     0.561592D0, 0.561587D0, 0.561582D0, 0.561575D0, 0.561566D0,
(PID.TID 0000.0001) >                     0.561554D0, 0.561539D0, 0.561518D0, 0.561487D0, 0.561440D0,
(PID.TID 0000.0001) >                     0.561363D0, 0.561227D0, 0.560946D0, 0.560202D0, 0.556914D0,
(PID.TID 0000.0001) > apressure_nlon       = 640,
(PID.TID 0000.0001) > apressure_nlat       = 320,
(PID.TID 0000.0001) >#
(PID.TID 0000.0001) > tidePot_lon0       = 0.0D0,
(PID.TID 0000.0001) > tidePot_lon_inc    = 0.5625D0,
(PID.TID 0000.0001) > tidePot_lat0       = -89.57009D0,
(PID.TID 0000.0001) > tidePot_lat_inc    = 0.556914D0, 0.560202D0, 0.560946D0, 0.561227D0, 0.561363D0,
(PID.TID 0000.0001) >                     0.561440D0, 0.561487D0, 0.561518D0, 0.561539D0, 0.561554D0,
(PID.TID 0000.0001) >                     0.561566D0, 0.561575D0, 0.561582D0, 0.561587D0, 0.561592D0,
(PID.TID 0000.0001) >                     289*0.561619268965519,
(PID.TID 0000.0001) >                     0.561592D0, 0.561587D0, 0.561582D0, 0.561575D0, 0.561566D0,
(PID.TID 0000.0001) >                     0.561554D0, 0.561539D0, 0.561518D0, 0.561487D0, 0.561440D0,
(PID.TID 0000.0001) >                     0.561363D0, 0.561227D0, 0.560946D0, 0.560202D0, 0.556914D0,
(PID.TID 0000.0001) > tidePot_nlon       = 640,
(PID.TID 0000.0001) > tidePot_nlat       = 320,
(PID.TID 0000.0001) >#
(PID.TID 0000.0001) > uwind_lon0        = 0.0D0,
(PID.TID 0000.0001) > uwind_lon_inc     = 0.5625D0,
(PID.TID 0000.0001) > uwind_lat0        = -89.57009D0,
(PID.TID 0000.0001) > uwind_lat_inc     = 0.556914D0, 0.560202D0, 0.560946D0, 0.561227D0, 0.561363D0,
(PID.TID 0000.0001) >                     0.561440D0, 0.561487D0, 0.561518D0, 0.561539D0, 0.561554D0,
(PID.TID 0000.0001) >                     0.561566D0, 0.561575D0, 0.561582D0, 0.561587D0, 0.561592D0,
(PID.TID 0000.0001) >                     289*0.561619268965519,
(PID.TID 0000.0001) >                     0.561592D0, 0.561587D0, 0.561582D0, 0.561575D0, 0.561566D0,
(PID.TID 0000.0001) >                     0.561554D0, 0.561539D0, 0.561518D0, 0.561487D0, 0.561440D0,
(PID.TID 0000.0001) >                     0.561363D0, 0.561227D0, 0.560946D0, 0.560202D0, 0.556914D0,
(PID.TID 0000.0001) > uwind_nlon        = 640,
(PID.TID 0000.0001) > uwind_nlat        = 320,
(PID.TID 0000.0001) >#
(PID.TID 0000.0001) > vwind_lon0        = 0.0D0,
(PID.TID 0000.0001) > vwind_lon_inc     = 0.5625D0,
(PID.TID 0000.0001) > vwind_lat0        = -89.57009D0,
(PID.TID 0000.0001) > vwind_lat_inc     = 0.556914D0, 0.560202D0, 0.560946D0, 0.561227D0, 0.561363D0,
(PID.TID 0000.0001) >                     0.561440D0, 0.561487D0, 0.561518D0, 0.561539D0, 0.561554D0,
(PID.TID 0000.0001) >                     0.561566D0, 0.561575D0, 0.561582D0, 0.561587D0, 0.561592D0,
(PID.TID 0000.0001) >                     289*0.561619268965519,
(PID.TID 0000.0001) >                     0.561592D0, 0.561587D0, 0.561582D0, 0.561575D0, 0.561566D0,
(PID.TID 0000.0001) >                     0.561554D0, 0.561539D0, 0.561518D0, 0.561487D0, 0.561440D0,
(PID.TID 0000.0001) >                     0.561363D0, 0.561227D0, 0.560946D0, 0.560202D0, 0.556914D0,
(PID.TID 0000.0001) > vwind_nlon        = 640,
(PID.TID 0000.0001) > vwind_nlat        = 320,
(PID.TID 0000.0001) >#
(PID.TID 0000.0001) > runoff_lon0       = 0.50D0,
(PID.TID 0000.0001) > runoff_lon_inc    = 1.0D0,
(PID.TID 0000.0001) > runoff_lat0       = -89.5D0,
(PID.TID 0000.0001) > runoff_lat_inc    = 179*1.,
(PID.TID 0000.0001) > runoff_nlon       = 360,
(PID.TID 0000.0001) > runoff_nlat       = 180,
(PID.TID 0000.0001) > &
(PID.TID 0000.0001) >#
(PID.TID 0000.0001) > &EXF_NML_OBCS
(PID.TID 0000.0001) >  obcsSstartdate1   = 20021215,
(PID.TID 0000.0001) >  obcsSstartdate2   = 060000,
(PID.TID 0000.0001) >  obcsSperiod       = 2629800.0,
(PID.TID 0000.0001) >#
(PID.TID 0000.0001) >  obcsNstartdate1   = 20021215,
(PID.TID 0000.0001) >  obcsNstartdate2   = 060000,
(PID.TID 0000.0001) >  obcsNperiod       = 2629800.0,
(PID.TID 0000.0001) >#
(PID.TID 0000.0001) >  obcsEstartdate1   = 20021215,
(PID.TID 0000.0001) >  obcsEstartdate2   = 060000,
(PID.TID 0000.0001) >  obcsEperiod       = 2629800.0,
(PID.TID 0000.0001) >#
(PID.TID 0000.0001) >  obcsWstartdate1   = 20021215,
(PID.TID 0000.0001) >  obcsWstartdate2   = 060000,
(PID.TID 0000.0001) >  obcsWperiod       = 2629800.0,
(PID.TID 0000.0001) > &
(PID.TID 0000.0001) 
(PID.TID 0000.0001) EXF_READPARMS: reading EXF_NML_01
(PID.TID 0000.0001) EXF_READPARMS: reading EXF_NML_02
(PID.TID 0000.0001) EXF_READPARMS: reading EXF_NML_03
(PID.TID 0000.0001) EXF_READPARMS: reading EXF_NML_04
(PID.TID 0000.0001) EXF_READPARMS: reading EXF_NML_OBCS
(PID.TID 0000.0001) EXF_READPARMS: finished reading data.exf
(PID.TID 0000.0001)  OBCS_READPARMS: opening data.obcs
(PID.TID 0000.0001)  OPEN_COPY_DATA_FILE: opening file data.obcs
(PID.TID 0000.0001) // =======================================================
(PID.TID 0000.0001) // Parameter file "data.obcs"
(PID.TID 0000.0001) // =======================================================
(PID.TID 0000.0001) ># ***************
(PID.TID 0000.0001) ># Open boundaries
(PID.TID 0000.0001) ># ***************
(PID.TID 0000.0001) > &OBCS_PARM01
(PID.TID 0000.0001) >OB_Jnorth = 1080*537, 540*0,
(PID.TID 0000.0001) >OB_Jsouth = 1080*8, 540*0,
(PID.TID 0000.0001) >OB_Ieast = 540*0, 1080*533,
(PID.TID 0000.0001) >OB_Iwest = 540*0, 1080*4,
(PID.TID 0000.0001) >#
(PID.TID 0000.0001) > useOBCSprescribe=.TRUE.,
(PID.TID 0000.0001) ># useOBCSsponge=.true.,
(PID.TID 0000.0001) > OBCS_monSelect = 3,
(PID.TID 0000.0001) ># >0: use 1rst O. upwind adv-scheme @ OB (=1: only if outflow)
(PID.TID 0000.0001) > OBCS_u1_adv_T = 1,
(PID.TID 0000.0001) > OBCS_u1_adv_S = 1,
(PID.TID 0000.0001) >#
(PID.TID 0000.0001) > OBSsFile='OBSs_1620x100x26.bin',
(PID.TID 0000.0001) > OBStFile='OBSt_1620x100x26.bin',
(PID.TID 0000.0001) > OBSuFile='OBSu_1620x100x26.bin',
(PID.TID 0000.0001) > OBSvFile='OBSv_1620x100x26.bin',
(PID.TID 0000.0001) >#
(PID.TID 0000.0001) > OBNsFile='OBNs_1620x100x26.bin',
(PID.TID 0000.0001) > OBNtFile='OBNt_1620x100x26.bin',
(PID.TID 0000.0001) > OBNuFile='OBNu_1620x100x26.bin',
(PID.TID 0000.0001) > OBNvFile='OBNv_1620x100x26.bin',
(PID.TID 0000.0001) >#
(PID.TID 0000.0001) > OBEsFile='OBEs_1620x100x26.bin',
(PID.TID 0000.0001) > OBEtFile='OBEt_1620x100x26.bin',
(PID.TID 0000.0001) > OBEuFile='OBEu_1620x100x26.bin',
(PID.TID 0000.0001) > OBEvFile='OBEv_1620x100x26.bin',
(PID.TID 0000.0001) >#
(PID.TID 0000.0001) > OBWsFile='OBWs_1620x100x26.bin',
(PID.TID 0000.0001) > OBWtFile='OBWt_1620x100x26.bin',
(PID.TID 0000.0001) > OBWuFile='OBWu_1620x100x26.bin',
(PID.TID 0000.0001) > OBWvFile='OBWv_1620x100x26.bin',
(PID.TID 0000.0001) ># Balancing
(PID.TID 0000.0001) > useOBCSbalance = .TRUE.,
(PID.TID 0000.0001) > OBCS_balanceFacN = -1,
(PID.TID 0000.0001) > OBCS_balanceFacS = -1,
(PID.TID 0000.0001) > OBCS_balanceFacE = -1,
(PID.TID 0000.0001) > OBCS_balanceFacW = -1,
(PID.TID 0000.0001) >## *****************************************
(PID.TID 0000.0001) >## Tidal BC parameters
(PID.TID 0000.0001) >## *****************************************
(PID.TID 0000.0001) > useOBCStides = .TRUE.,
(PID.TID 0000.0001) >##components   = M2       S2     N2       K2       K1      O1       P1       Q1       Mf         Mm
(PID.TID 0000.0001) >##periods (hr) = 12.4206  12     12.6583  11.9672  23.9345 25.8193  24.0659  26.8684  327.8599   661.31
(PID.TID 0000.0001) >##period(sec)  = 44714.165 43200.001 45570.054 43082.05 86164.077 92949.636 86637.2 96726.086 1180295.5 2380715.9
(PID.TID 0000.0001) >##components      m2        s2        n2        k2        k1        o1        p1        q1        mf        mm        m4        ms4       mn4
(PID.TID 0000.0001) >##period (hr): 12.420601 12.000000 12.658348 11.967236 23.934466 25.819343 24.065889 26.868357 327.859874 661.309962 6.210303 6.103339 6.269178
(PID.TID 0000.0001) >##period (s):  44714.165192 43200.001287 45570.053512 43082.050319 86164.077005 92949.635701 86637.199772 96726.085703 1180295.545550 2380715.863587 22357.090551 21972.021930 22569.042448
(PID.TID 0000.0001) > tidalPeriod  = 44714.165 43200.001 45570.054 43082.050 86164.077 92949.636 86637.200 96726.086 1180295.546 2380715.864 22357.091 21972.022 22569.042,
(PID.TID 0000.0001) > OBSamFile='OBSam_1620x13.bin',
(PID.TID 0000.0001) > OBNamFile='OBNam_1620x13.bin',
(PID.TID 0000.0001) > OBWamFile='OBWam_1620x13.bin',
(PID.TID 0000.0001) > OBEamFile='OBEam_1620x13.bin',
(PID.TID 0000.0001) > OBSphFile='OBSph_1620x13.bin',
(PID.TID 0000.0001) > OBNphFile='OBNph_1620x13.bin',
(PID.TID 0000.0001) > OBWphFile='OBWph_1620x13.bin',
(PID.TID 0000.0001) > OBEphFile='OBEph_1620x13.bin',
(PID.TID 0000.0001) > &
(PID.TID 0000.0001) ># *****************************************
(PID.TID 0000.0001) ># Sponge Layer Parameters.
(PID.TID 0000.0001) ># *****************************************
(PID.TID 0000.0001) > &OBCS_PARM03
(PID.TID 0000.0001) ># Urelaxobcsinner=2629800.E0,
(PID.TID 0000.0001) ># Urelaxobcsbound=43200.E0,
(PID.TID 0000.0001) >#
(PID.TID 0000.0001) ># Vrelaxobcsinner=2629800.E0,
(PID.TID 0000.0001) ># Vrelaxobcsbound=43200.E0,
(PID.TID 0000.0001) >#
(PID.TID 0000.0001) ># spongeThickness=16,
(PID.TID 0000.0001) > &
(PID.TID 0000.0001) 
(PID.TID 0000.0001)  OBCS_READPARMS: finished reading data.obcs
(PID.TID 0000.0001)  OB_indexUnset = /* unset OB index value (i.e. no OB) */
(PID.TID 0000.0001)                       0
(PID.TID 0000.0001)     ;
(PID.TID 0000.0001)  Northern OB global indices : OB_Jnorth =
(PID.TID 0000.0001)  1080 @      537,                           /* I =   1:1080 */
(PID.TID 0000.0001)   540 @        0                            /* I =***:*** */
(PID.TID 0000.0001)  Southern OB global indices : OB_Jsouth =
(PID.TID 0000.0001)  1080 @        8,                           /* I =   1:1080 */
(PID.TID 0000.0001)   540 @        0                            /* I =***:*** */
(PID.TID 0000.0001)  Eastern  OB global indices : OB_Ieast =
(PID.TID 0000.0001)   540 @        0,                           /* J =   1: 540 */
(PID.TID 0000.0001)  1080 @      533                            /* J =541:*** */
(PID.TID 0000.0001)  Western  OB global indices : OB_Iwest =
(PID.TID 0000.0001)   540 @        0,                           /* J =   1: 540 */
(PID.TID 0000.0001)  1080 @        4                            /* J =541:*** */
(PID.TID 0000.0001) 
(PID.TID 0000.0001)  KPP_READPARMS: opening data.kpp
(PID.TID 0000.0001)  OPEN_COPY_DATA_FILE: opening file data.kpp
(PID.TID 0000.0001) // =======================================================
(PID.TID 0000.0001) // Parameter file "data.kpp"
(PID.TID 0000.0001) // =======================================================
(PID.TID 0000.0001) ># KPP parameters
(PID.TID 0000.0001) > &KPP_PARM01
(PID.TID 0000.0001) >### KPPmixingMaps   = .FALSE.,
(PID.TID 0000.0001) >### KPPwriteState   = .FALSE.,
(PID.TID 0000.0001) >### kpp_dumpFreq    = 0.,
(PID.TID 0000.0001) >### kpp_tavefreq    = 0.,
(PID.TID 0000.0001) >### Ricr            = 0.3559,
(PID.TID 0000.0001) >### Riinfty         = 0.6998,
(PID.TID 0000.0001) > &
(PID.TID 0000.0001) 
(PID.TID 0000.0001)  KPP_READPARMS ; starts to read KPP_PARM01
(PID.TID 0000.0001)  KPP_READPARMS ; read KPP_PARM01 : OK
(PID.TID 0000.0001)  KPP_READPARMS: finished reading data.kpp
(PID.TID 0000.0001)  DIAGNOSTICS_READPARMS: opening data.diagnostics
(PID.TID 0000.0001)  OPEN_COPY_DATA_FILE: opening file data.diagnostics
(PID.TID 0000.0001) // =======================================================
(PID.TID 0000.0001) // Parameter file "data.diagnostics"
(PID.TID 0000.0001) // =======================================================
(PID.TID 0000.0001) ># Diagnostic Package Choices
(PID.TID 0000.0001) >#-----------------
(PID.TID 0000.0001) ># for each output-stream:
(PID.TID 0000.0001) >#  filename(n) : prefix of the output file name (only 8.c long) for outp.stream n
(PID.TID 0000.0001) >#  frequency(n):< 0 : write snap-shot output every multiple of |frequency| (iter)
(PID.TID 0000.0001) >#               > 0 : write time-average output every multiple of frequency (iter)
(PID.TID 0000.0001) >#  levels(:,n) : list of levels to write to file (Notes: declared as REAL)
(PID.TID 0000.0001) >#                 when this entry is missing, select all common levels of this list
(PID.TID 0000.0001) >#  fields(:,n) : list of diagnostics fields (8.c) (see "available_diagnostics" file
(PID.TID 0000.0001) >#                 for the list of all available diag. in this particular config)
(PID.TID 0000.0001) >#--------------------------------------------------------------------
(PID.TID 0000.0001) >#
(PID.TID 0000.0001) > &diagnostics_list
(PID.TID 0000.0001) >#
(PID.TID 0000.0001) >   dumpatlast = .TRUE.,
(PID.TID 0000.0001) >#
(PID.TID 0000.0001) >#---
(PID.TID 0000.0001) >  frequency(1) = 3600.0,
(PID.TID 0000.0001) >   fields(1:5,1) = 'ETAN', 'oceTAUX', 'oceTAUY', 'EXFuwind', 'EXFvwind',
(PID.TID 0000.0001) >   filename(1) = 'diags/surface',
(PID.TID 0000.0001) >#---
(PID.TID 0000.0001) >  frequency(2) = 3600.0,
(PID.TID 0000.0001) >   fields(1:5,2) = 'THETA', 'SALT', 'UVEL', 'VVEL', 'WVEL',
(PID.TID 0000.0001) >   filename(2) = 'diags/interior',
(PID.TID 0000.0001) >#   levels(1:55,2) =  1., 2., 3., 4., 5., 6., 7., 8., 9.,10.,11.,13.,15.,
(PID.TID 0000.0001) >#                     17.,19.,21.,23.,25.,27.,29.,31.,33.,35.,37.,39.,41.,43.,45.,
(PID.TID 0000.0001) >#                     47.,49.,51.,53.,55.,57.,59.,61.,63.,65.,67.,69.,71.,73.,75.,
(PID.TID 0000.0001) >#                     77.,79.,81.,83.,85.,87.,89.,91.,93.,95.,97.,99.,
(PID.TID 0000.0001) > /
(PID.TID 0000.0001) >#
(PID.TID 0000.0001) >#
(PID.TID 0000.0001) ># Parameter for Diagnostics of per level statistics:
(PID.TID 0000.0001) >#-----------------
(PID.TID 0000.0001) ># for each output-stream:
(PID.TID 0000.0001) >#  stat_fname(n) : prefix of the output file name (only 8.c long) for outp.stream n
(PID.TID 0000.0001) >#  stat_freq(n):< 0 : write snap-shot output every |stat_freq| seconds
(PID.TID 0000.0001) >#               > 0 : write time-average output every stat_freq seconds
(PID.TID 0000.0001) >#  stat_phase(n)    : write at time = stat_phase + multiple of |stat_freq|
(PID.TID 0000.0001) >#  stat_region(:,n) : list of "regions" (default: 1 region only=global)
(PID.TID 0000.0001) >#  stat_fields(:,n) : list of diagnostics fields (8.c) (see "available_diagnostics.log"
(PID.TID 0000.0001) >#                 file for the list of all available diag. in this particular config)
(PID.TID 0000.0001) >#-----------------
(PID.TID 0000.0001) > &DIAG_STATIS_PARMS
(PID.TID 0000.0001) ># diagSt_regMaskFile='basin_masks_eccollc_90x50.bin',
(PID.TID 0000.0001) ># nSetRegMskFile=1,
(PID.TID 0000.0001) ># set_regMask(1)= 1,  1,  1,  1,  1,  1,  1,  1,  1,
(PID.TID 0000.0001) >#                 1,  1,  1,  1,  1,  1,  1,  1
(PID.TID 0000.0001) ># val_regMask(1)= 1., 2., 3., 4., 5., 6., 7., 8., 9.,
(PID.TID 0000.0001) >#                10.,11.,12.,13.,14.,15.,16.,17.
(PID.TID 0000.0001) >##---
(PID.TID 0000.0001) ># stat_fields(1,1)= 'ETAN    ','ETANSQ  ','DETADT2 ',
(PID.TID 0000.0001) >#                   'UVEL    ','VVEL    ','WVEL    ',
(PID.TID 0000.0001) >#                   'THETA   ','SALT    ',
(PID.TID 0000.0001) >#    stat_fname(1)= 'dynStDiag',
(PID.TID 0000.0001) >#     stat_freq(1)= 3153600.,
(PID.TID 0000.0001) ># stat_region(1,1)=  1, 2, 3, 4, 5, 6, 7, 8, 9,
(PID.TID 0000.0001) >#                   10,11,12,13,14,15,16,17
(PID.TID 0000.0001) >##---
(PID.TID 0000.0001) ># stat_fields(1,2)= 'oceTAUX ','oceTAUY ',
(PID.TID 0000.0001) >#                   'surForcT','surForcS','TFLUX   ','SFLUX   ',
(PID.TID 0000.0001) >#                   'oceQnet ','oceSflux','oceFWflx',
(PID.TID 0000.0001) >#    stat_fname(2)= 'surfStDiag',
(PID.TID 0000.0001) >#     stat_freq(2)= 3153600.,
(PID.TID 0000.0001) ># stat_region(1,2)=  1, 2, 3, 4, 5, 6, 7, 8, 9,
(PID.TID 0000.0001) >#                   10,11,12,13,14,15,16,17
(PID.TID 0000.0001) > /
(PID.TID 0000.0001) 
(PID.TID 0000.0001) S/R DIAGNOSTICS_READPARMS, read namelist "diagnostics_list": start
(PID.TID 0000.0001) S/R DIAGNOSTICS_READPARMS, read namelist "diagnostics_list": OK
(PID.TID 0000.0001) S/R DIAGNOSTICS_READPARMS, read namelist "DIAG_STATIS_PARMS": start
(PID.TID 0000.0001) S/R DIAGNOSTICS_READPARMS, read namelist "DIAG_STATIS_PARMS": OK
(PID.TID 0000.0001)  DIAGNOSTICS_READPARMS: global parameter summary:
(PID.TID 0000.0001)  dumpAtLast = /* always write time-ave diags at the end */
(PID.TID 0000.0001)                   T
(PID.TID 0000.0001)     ;
(PID.TID 0000.0001)  diag_mnc =   /* write NetCDF output files */
(PID.TID 0000.0001)                   F
(PID.TID 0000.0001)     ;
(PID.TID 0000.0001)  useMissingValue = /* put MissingValue where mask = 0 */
(PID.TID 0000.0001)                   F
(PID.TID 0000.0001)     ;
(PID.TID 0000.0001)  diagCG_maxIters = /* max number of iters in diag_cg2d */
(PID.TID 0000.0001)                    1000
(PID.TID 0000.0001)     ;
(PID.TID 0000.0001)  diagCG_resTarget = /* residual target for diag_cg2d */
(PID.TID 0000.0001)                 1.000000000000000E-07
(PID.TID 0000.0001)     ;
(PID.TID 0000.0001)  diagCG_pcOffDFac = /* preconditioner off-diagonal factor */
(PID.TID 0000.0001)                 9.611687812379854E-01
(PID.TID 0000.0001)     ;
(PID.TID 0000.0001) -----------------------------------------------------
(PID.TID 0000.0001)  DIAGNOSTICS_READPARMS: active diagnostics summary:
(PID.TID 0000.0001) -----------------------------------------------------
(PID.TID 0000.0001) Creating Output Stream: diags/surface
(PID.TID 0000.0001) Output Frequency:       3600.000000 ; Phase:           0.000000
(PID.TID 0000.0001)  Averaging Freq.:       3600.000000 , Phase:           0.000000 , Cycle:   1
(PID.TID 0000.0001)  missing value: -9.990000000000E+02
(PID.TID 0000.0001)  Levels:    will be set later
(PID.TID 0000.0001)  Fields:    ETAN     oceTAUX  oceTAUY  EXFuwind EXFvwind
(PID.TID 0000.0001) Creating Output Stream: diags/interior
(PID.TID 0000.0001) Output Frequency:       3600.000000 ; Phase:           0.000000
(PID.TID 0000.0001)  Averaging Freq.:       3600.000000 , Phase:           0.000000 , Cycle:   1
(PID.TID 0000.0001)  missing value: -9.990000000000E+02
(PID.TID 0000.0001)  Levels:    will be set later
(PID.TID 0000.0001)  Fields:    THETA    SALT     UVEL     VVEL     WVEL
(PID.TID 0000.0001) -----------------------------------------------------
(PID.TID 0000.0001)  DIAGNOSTICS_READPARMS: statistics diags. summary:
(PID.TID 0000.0001) -----------------------------------------------------
(PID.TID 0000.0001) 
(PID.TID 0000.0001) SET_PARMS: done
(PID.TID 0000.0001) Enter INI_VERTICAL_GRID: setInterFDr=    T ; setCenterDr=    F
(PID.TID 0000.0001) tile:   1 ; Read from file tile001.mitgrid
(PID.TID 0000.0001)   => xC yC dxF dyF rA xG yG dxV dyU rAz dxC dyC rAw rAs dxG dyG
(PID.TID 0000.0001) %MON XC_max                       =  -4.2708333333333E+00
(PID.TID 0000.0001) %MON XC_min                       =  -8.2979166666667E+01
(PID.TID 0000.0001) %MON XC_mean                      =  -4.3656779661017E+01
(PID.TID 0000.0001) %MON XC_sd                        =   2.1416784662794E+01
(PID.TID 0000.0001) %MON XG_max                       =  -4.2916666666667E+00
(PID.TID 0000.0001) %MON XG_min                       =  -8.3000000000000E+01
(PID.TID 0000.0001) %MON XG_mean                      =  -4.3677612994350E+01
(PID.TID 0000.0001) %MON XG_sd                        =   2.1416784662794E+01
(PID.TID 0000.0001) %MON DXC_max                      =   4.1396407771681E+03
(PID.TID 0000.0001) %MON DXC_min                      =   3.1250655537105E+03
(PID.TID 0000.0001) %MON DXC_mean                     =   3.6037673106849E+03
(PID.TID 0000.0001) %MON DXC_sd                       =   2.4914041926297E+02
(PID.TID 0000.0001) %MON DXF_max                      =   4.1396407771687E+03
(PID.TID 0000.0001) %MON DXF_min                      =   3.1257281057051E+03
(PID.TID 0000.0001) %MON DXF_mean                     =   3.6041299665782E+03
(PID.TID 0000.0001) %MON DXF_sd                       =   2.4895595026445E+02
(PID.TID 0000.0001) %MON DXG_max                      =   4.1402617068725E+03
(PID.TID 0000.0001) %MON DXG_min                      =   3.1257281057058E+03
(PID.TID 0000.0001) %MON DXG_mean                     =   3.6044367253935E+03
(PID.TID 0000.0001) %MON DXG_sd                       =   2.4913620976209E+02
(PID.TID 0000.0001) %MON DXV_max                      =   4.1402617068725E+03
(PID.TID 0000.0001) %MON DXV_min                      =   3.1250655537105E+03
(PID.TID 0000.0001) %MON DXV_mean                     =   3.6040740695002E+03
(PID.TID 0000.0001) %MON DXV_sd                       =   2.4932099159289E+02
(PID.TID 0000.0001) %MON YC_max                       =   4.3512572127093E+01
(PID.TID 0000.0001) %MON YC_min                       =   2.6667172344766E+01
(PID.TID 0000.0001) %MON YC_mean                      =   3.5202184999450E+01
(PID.TID 0000.0001) %MON YC_sd                        =   4.8166811048475E+00
(PID.TID 0000.0001) %MON YG_max                       =   4.3526628017801E+01
(PID.TID 0000.0001) %MON YG_min                       =   2.6650055290879E+01
(PID.TID 0000.0001) %MON YG_mean                      =   3.5204597649593E+01
(PID.TID 0000.0001) %MON YG_sd                        =   4.8161011946804E+00
(PID.TID 0000.0001) %MON DYC_max                      =   4.1396407771681E+03
(PID.TID 0000.0001) %MON DYC_min                      =   3.1263906594436E+03
(PID.TID 0000.0001) %MON DYC_mean                     =   3.6495104045127E+03
(PID.TID 0000.0001) %MON DYC_sd                       =   2.5947805112709E+02
(PID.TID 0000.0001) %MON DYF_max                      =   4.1396407771687E+03
(PID.TID 0000.0001) %MON DYF_min                      =   3.1257281057065E+03
(PID.TID 0000.0001) %MON DYF_mean                     =   3.6492429901036E+03
(PID.TID 0000.0001) %MON DYF_sd                       =   2.5966646178032E+02
(PID.TID 0000.0001) %MON DYG_max                      =   4.1390195697792E+03
(PID.TID 0000.0001) %MON DYG_min                      =   3.1257281057058E+03
(PID.TID 0000.0001) %MON DYG_mean                     =   3.6488274159552E+03
(PID.TID 0000.0001) %MON DYG_sd                       =   2.5948422250146E+02
(PID.TID 0000.0001) %MON DYU_max                      =   4.1390195697805E+03
(PID.TID 0000.0001) %MON DYU_min                      =   3.1263906594436E+03
(PID.TID 0000.0001) %MON DYU_mean                     =   3.6490948303644E+03
(PID.TID 0000.0001) %MON DYU_sd                       =   2.5929610801441E+02
(PID.TID 0000.0001) %MON RA_max                       =   1.5754564649722E+07
(PID.TID 0000.0001) %MON RA_min                       =   1.0500948212213E+07
(PID.TID 0000.0001) %MON RA_mean                      =   1.3175496851859E+07
(PID.TID 0000.0001) %MON RA_sd                        =   1.5117950743597E+06
(PID.TID 0000.0001) %MON RAW_max                      =   1.5754564640712E+07
(PID.TID 0000.0001) %MON RAW_min                      =   1.0496276813784E+07
(PID.TID 0000.0001) %MON RAW_mean                     =   1.3172687163218E+07
(PID.TID 0000.0001) %MON RAW_sd                       =   1.5117190300960E+06
(PID.TID 0000.0001) %MON RAS_max                      =   1.5759254554448E+07
(PID.TID 0000.0001) %MON RAS_min                      =   1.0500948221223E+07
(PID.TID 0000.0001) %MON RAS_mean                     =   1.3177563200865E+07
(PID.TID 0000.0001) %MON RAS_sd                       =   1.5117312562591E+06
(PID.TID 0000.0001) %MON RAZ_max                      =   1.5759254554448E+07
(PID.TID 0000.0001) %MON RAZ_min                      =   1.0496276849823E+07
(PID.TID 0000.0001) %MON RAZ_mean                     =   1.3174753512224E+07
(PID.TID 0000.0001) %MON RAZ_sd                       =   1.5116590494693E+06
(PID.TID 0000.0001) %MON AngleCS_max                  =   1.0000000000000E+00
(PID.TID 0000.0001) %MON AngleCS_min                  =  -6.9859794131994E-13
(PID.TID 0000.0001) %MON AngleCS_mean                 =   4.2372881355932E-01
(PID.TID 0000.0001) %MON AngleCS_sd                   =   4.9414846566485E-01
(PID.TID 0000.0001) %MON AngleSN_max                  =   6.9859794131994E-13
(PID.TID 0000.0001) %MON AngleSN_min                  =  -1.0000000000000E+00
(PID.TID 0000.0001) %MON AngleSN_mean                 =  -5.7627118644068E-01
(PID.TID 0000.0001) %MON AngleSN_sd                   =   4.9414846566487E-01
(PID.TID 0000.0001)  MDS_READ_FIELD: opening global file: bathy.bin
(PID.TID 0000.0001) // =======================================================
(PID.TID 0000.0001) // Field Model R_low (ini_masks_etc)
(PID.TID 0000.0001) // CMIN =         -5.853495605468750E+03
(PID.TID 0000.0001) // CMAX =         -3.155474000000000E+03
(PID.TID 0000.0001) // CINT =          9.992672612847224E+01
(PID.TID 0000.0001) // SYMBOLS (CMIN->CMAX): -abcdefghijklmnopqrstuvwxyz+
(PID.TID 0000.0001) //                  0.0: .
(PID.TID 0000.0001) // RANGE I (Lo:Hi:Step):(    -7:    98:     1)
(PID.TID 0000.0001) // RANGE J (Lo:Hi:Step):(    98:    -7:    -1)
(PID.TID 0000.0001) // RANGE K (Lo:Hi:Step):(   1:   1:   1)
(PID.TID 0000.0001) // =======================================================
(PID.TID 0000.0001) K =   1
(PID.TID 0000.0001) //                I=2       I=12      I=22      I=32      I=42      I=52      I=62      I=72      I=82      I=92
(PID.TID 0000.0001) // |--J--|765432101|345678901|345678901|345678901|345678901|345678901|345678901|345678901|345678901|345678901|345678
(PID.TID 0000.0001) //     98 qrrssuvvutuuvvwwwwwx+yxwxxyxvtsssrppqsssssqqqqttrppqoprrqrtuusmkmppprqomlmmlmonljkkkjjiijjhhilnokklkkkllll
(PID.TID 0000.0001) //     97 oppqrtttsstttuvvvvwyyvwxyxyxvuuuutrsvwutuurqqrtsnmpupqssqrtvvqljlonnqqomlmmlmnnmlkkjkkjiiihhikmnlllkkklmmm
(PID.TID 0000.0001) //     96 nnooprrqppsstuvuuuvwwtuwyxxxvuvwwusuwwutuurqqsrpllpvoqsqopruwpjjkomlqpnlloomlmmmnmkkkmljihhhijlllmnljkmnmm
(PID.TID 0000.0001) //     95 onnnoooonopqsttttttuuttuwxwvuuvwwvuuutsstsrqpqpomnprppqnmnoquojjknlkonllmppnllllnolllmnkihhhiikjkmoljkmqnl
(PID.TID 0000.0001) //     94 pnnnnnnnnnoostsrsssststtvxwuttuvvuttsrrrrqpopponmnppnmmlklmmomkkklllmlklmnonljjknomonnmjhihhikkjjmnljklonl
(PID.TID 0000.0001) //     93 sppponnnnnnoqrqqsssrtsttvvuttttuutsrqppqqpoooonmmnpomlkjjlllmmllllllllkmmmnnljijmmloonjhiihijklkkllkjkkmml
(PID.TID 0000.0001) //     92 vttsqonnnnnnppopqssqsststtssttsttsqpooopqpooonnllmpolkkjjlmlmmmlkkllljjmmmnnmkiiikklnmihjkijlmmlkkkihklllj
(PID.TID 0000.0001) //     91 yxwvtqponnnnnnnoooqprssrrsrrssrtrqooonnpqppoonnlklpmkllkkkllmmmllkllljijklmmmljiikkjkjhijlkkmnnmlkjggjlmki
(PID.TID 0000.0001) //     90 zzyxusrrppponnnnnnoopqrqqqpqrrrtponoonoqrponnnnkjlnkkmmmklllmmnnnlllmljijklmmmlkmllkjjiiijklnonnkjjhhknoki
(PID.TID 0000.0001) //     89 yyyywuuutsspnnnnnnnnnopoooopqqqronoopoopqpononmkklmklnnmlllllmmnpmmmnmlkjjkllmmkmllkjjjiiijkmnmnliihjmpqlj
(PID.TID 0000.0001) //     88 xxxxwvvwvuvrooppponnnoonnmnooopponoopqqpoonpqmmllmlkmmmllllkkllmnnonnnmmjjjkllkjlkkkkjkjiiijklklmjjjloqqnl
(PID.TID 0000.0001) //     87 xwwwwwwxwuwtrrsttpnnooonmmnnnnnnnnooqsronmlqqnnnnmlkmnnmllkkkkkkmnnponnljjjkmlhijjkllkkjihiijjjjlkklnpqpom
(PID.TID 0000.0001) //     86 wvwvvwxyuuvvuuvwwsqqrqponnoonnnooooprsqnpnlopoooomlmoqrpmllkklkmpmjpnmomjlllpnjjjjlmmlkjiiiiijkkkkklnpqpon
(PID.TID 0000.0001) //     85 uvvuuvwwuuvvwxyxxvvuutsrrpqpppppppppqpmlromnpppponmnqssqnlkjkmklnljpllnlimlkqqokijklnmkjiiijjjkkkkkkmoppoo
(PID.TID 0000.0001) //     84 tutsstuuttuvwxyxxxwwwvttutrrrssrqpoppollplmnopponnnorstqnlkjjmmljijmlllkikkilpqkhjjjnlkiiijjljjklkjjlnoooo
(PID.TID 0000.0001) //     83 qssrqrrrrstuvwxwxwvvwvuuutrstuutrpoopnmlollnnnnnmmnpqrsqnljjjknlihhjllkjhhkkimojhiijmjiiijjjljilmkjjlmnnnn
(PID.TID 0000.0001) //     82 oqpopqqppqrsstvvvvvvvvuttsruuvvuponorqonnnoonmmlllmpppponliijlpkhijjlmkihhijimnjiiikkiijjklkjjjnnkiimnonmn
(PID.TID 0000.0001) //     81 ooooopqoopqqqrttuuuvttsrtssttvwvoomqwuqoprsqmlmkkllpomllnljjmoojjjmlmmkjjihlmnokijjllkkllmmmklknmkijoponmn
(PID.TID 0000.0001) //     80 nnnnooonnoooprsrssttrrqprrrsstuuonmrwvtrsuusnllkkllonlklnmllnoomlkmmmmllonknoonkijkmmmnnnopoopmmmkjkpqommo
(PID.TID 0000.0001) //     79 onnnnnnnnnnnnqrpqppppqpopppqrstspmnptttttttrpmjjkllmmmlmnnnnmoponllmlllmqpononnkiklnopqnnoqqqrnmlkkloqonmn
(PID.TID 0000.0001) //     78 qqonnnnnnmmlmnonnnmonpponnopqrrqpnmnqrrrrrqpomjjkklmmmlmnnnnmoponlkkkllmoomnnmmkjkmnpqronmmnoonnmkklnoonmm
(PID.TID 0000.0001) //     77 sronnonnnnnmmmmmmllmoponmlmnoppponmmnoppponnmljklkkllllmmmmomoponllmnoomnnmnmmljjkmopqqonmllllnnmlklnooonm
(PID.TID 0000.0001) //     76 onnoppppppppoonnllmnsrqnmllmnnoponmmmmmmmmmmmkjlmkkkkllmmlkmnoponmmnpsspooonmmljikmopqponmmllmnnmlllnooonm
(PID.TID 0000.0001) //     75 mlmopqrqqsrrsrqqonruxvrpommmmmnoonnnmllllllllkjklkjjkklmmkikmooooonmnssqpponmmliiknoqqponmmmmmmlmlllnonnml
(PID.TID 0000.0001) //     74 llmoooponsrsutstsquxwvtssnnoonmnoooonmllkllllkkklkjjkkkkkkjkmnooooommoqqpponmmmiiknpqqpponnmmmkkllllmnmlkj
(PID.TID 0000.0001) //     73 mnoonmmllopqssqssqsvtuuwuopqspnppppponnmlmmlllkkkkkkkkkkijjlmnnnnonmmmoppponnmljjknpqqqponmmlkjjklkjlljjih
(PID.TID 0000.0001) //     72 pqqnnljjjllmnnnoonpqqsuuroqsvrsurpqqpopommmllllkkkklmmlkiijlmmmmnnnmmnoppponnlimljlnprqpnmllkihijkkjjihhhg
(PID.TID 0000.0001) //     71 rrpmligghiihijklkklmnopponprtrsusqqqonqqnmnllllkjklmonkjiikmnmllmnnnmnoopppookhllkkloqpnlkjjjhghijkjhggggh
(PID.TID 0000.0001) //     70 rqomljgfhihghjkljjiikllllklnrqqrrrqpomoqpprolllkjlllmmljkjlmnmkklmmmnnonnooppkhikkjilnmljhhhhggggjjihggghi
(PID.TID 0000.0001) //     69 rqponlkjkljikmnnmkjiiiiiiiiimnnopponnmnoqqspkijklklkkmmmllllnmjiklllmnmllmnooifghihhhijihfeffeefeijjihggij
(PID.TID 0000.0001) //     68 rqqqpoonopnmnqrrpnmlkjhhihggijklmmmllklmnmllgfhjmkkkjllllkkjmmigijjjjkjiikllkedfffgfffggfeeedcddeikkkihhjk
(PID.TID 0000.0001) //     67 qqqqqqrspqpoprssrqpomkjjklihiijkkkkkkjkkkjhgedfikhhjhlkihhhgjjgfhhhhggffgiihfccddddddfggfffgfdefgkmmlkiijl
(PID.TID 0000.0001) //     66 pqppppqqmoonnpqrrqpommlmnpnkkkkkjjjkkkkkkjigfefhgeghgihfddddeeddffefddddfigecbcccccdefghghijiegiknonnljijk
(PID.TID 0000.0001) //     65 pponnnonlmmlklnpqpomlmnnoqpnnnnmkkklmlllmmmliiikigjhggfedddedcdeddddddddgihdccceedeefhiijkmmkijloppoomjjjk
(PID.TID 0000.0001) //     64 oonmlmnlkkjjiikmnomkkmopnopooppomlmnnnnnoppnllmomkkigfghhiijiefgedeffhghjkkhhgfjighhiikklnooomloqrqnnmkkkl
(PID.TID 0000.0001) //     63 nnmlklmljjihhhikmmljkmoqoooopqrqponooooopqpnmnoqnlkkihikmmmmkiiigfghhjikponmmmlnmjkkklnnopqqqonpqrpmmllllm
(PID.TID 0000.0001) //     62 nnmlkklkkjihhhijlllkkmnqpnnnoqssrqpppqqpopollppomllljjknonmmkkkkihhhjjkmqpmoopppommnooqqqqqrrpnommlllmmmmm
(PID.TID 0000.0001) //     61 nnmllllkkkjihiijkllkmnnoonnnoqrssrqpqrrpnnmlmrqommmmkklopomllllljjjjlmmmoomooqqrqooprssrqppponnljijklmmmml
(PID.TID 0000.0001) //     60 nnmllllllkjiijkkklllnponnnnnoprssrpooqrpmllmorrpnmmmlllnpqpmllmlkklmnnnooonopqqrrpoprtsppomkjjnlkkjjknnmll
(PID.TID 0000.0001) //     59 onnmmmmllljiikllllllmponnnnnopqqqonmlopnlkkloqqommmmlllmoppnmmmmllmnnmnponnppppqrnmmnonjjgeddfmlkkjijmnmmk
(PID.TID 0000.0001) //     58 ooonnonmlljijklmlllllnnmmmmnopppnmlkjlnmkijlmnnmllllllllmoonmmmmlmnoommoomnnoonpqjhihfgd---aadmnlkjjknnnnk
(PID.TID 0000.0001) //     57 noooppppnmkjklmmmmmnmnnmmllmnoonlkjjjlmlkjjklllkkkllmlllmnonmmmlllmnolmoommmnnnnlddgdacbaaabdhnnnlklnmlmmj
(PID.TID 0000.0001) //     56 nnnopqrrpnmklmnnmmnoonnnmlllnnnmkijjklllljjkkkjjkllmmmllmnnnlllllklmnlmnnnnmmnlkhcfjdcdddddeglmmnkkklkklkj
(PID.TID 0000.0001) //     55 nnnnopqqqonmlmnnmmnoooonmlllmmmlkjjjkllllkkkjjjjklmmnnmllmmmlkkkkkklmllnonmmmmlkjilnihggggfffhkllkkkjklmjj
(PID.TID 0000.0001) //     54 nmmmnoopponmmmnmlmnoonnmmllklllmlkkkkllllkkkjjjkllmnnnmlllmlkkkjjjjklkkmonmlmnmllkmmkjjjiihgghkmmkjjjkmnkk
(PID.TID 0000.0001) //     53 nmmmnnnooonmmmmmllmnnnmlllkkkllmmlkkkllmlkkkkkkkklmnnnmllllllkkjiijklkjknmlkmmmlkjjjjjjjjjiiijknmljijkmnml
(PID.TID 0000.0001) //     52 nmmmnnmmnnmmmmmmllnonmkkkkkklllmllkkllmnnlkkkllkklmnnmmlkkkllllkjijkkkiilkkklkkjjihghiijjkjjjjjmmlkjjlnnml
(PID.TID 0000.0001) //     51 nnnnnnmmlmmmmnmlklnonmkjijkkllmllkkklmoqqnmllmmlllmnnmlkkkkllmlkkhhjjihhjkkjihhihhgffhhiijkkkiilnnkjjlnmlk
(PID.TID 0000.0001) //     50 ooooooonllmnnmmllmopomkiiijllmllkjjklmosspnmmmnnlkllmmlkkjkkmmkiigfhhgffijjihfghfgggghhhhikkmkikooljjklkji
(PID.TID 0000.0001) //     49 pppooppommnnnmmllmopomkjiiklmlllkjjkklnrrpomllmmkiiklmlkjjjklmkghgfggeeeghihgfffeghiiiiggikkolikpoljiihghi
(PID.TID 0000.0001) //     48 oppnnoonmmnnnmmlmnoonllmjjklllllkjjjjklopomkjjkkjgfhjlkjihikllkffffggfeefghhghiggijkkjighjllomjjonljhgfggh
(PID.TID 0000.0001) //     47 oponmlllmnnnmmlmmmnmlklnlkkkkkllkjiijjjkllkjhijjhedfhjjigghjjjhedeefgfeeegijjkljikmnmkihijlnnmjjllkihhhjii
(PID.TID 0000.0001) //     46 ppnmkjikmnnnmmllmmmlkjkmlkkjjkllkjhhhihiiiihghhhgdcdghhgggghihfdddfffffeehlnnnomjnppnkiijkknljijjjkihhjmji
(PID.TID 0000.0001) //     45 qpnljiikmnnnmmllllllkjkkkkkkjllkjjhffgffffgggfggfdcdeggghhgggfedhligfhgeejpqqorspqrqokiijjijgfgiggjjiillii
(PID.TID 0000.0001) //     44 qpnljjlmnnmommmlllmmklkjjllllnmjhjgefffffffgffgfffefffffkkihghfflqmjhjiggkqsrortqmmpniiijjhgeefggfilmlnkhi
(PID.TID 0000.0001) //     43 qomljkpppnlplmnjnkmmlmkjjklmmonjhihghhhhiihhhhihhhiihhhimmkklmiinqomllkkjlpqpooojghkifhikkihihgggfhlnmlkhh
(PID.TID 0000.0001) //     42 onlkkmqppnmpmmnkmkmmllkjjkklmnmjhhiijjklnlkjjkkkkllljjklonmmmnllnpponlknlkmlllkkdcdeddgilnlijjihfggjlkjjhh
(PID.TID 0000.0001) //     41 nlkjloooonnnmmmlmlmllkjjiijklmlkihijjlmnonmlmmmmmnnnmmmopmmmmmnnmmppnljlljjgfhhgbccbfhjklnnkjkjihigjkhhihh
(PID.TID 0000.0001) //     40 mjjiknlmmnpnllmnllklkjiiihhjkkkmkiijjmnmnonnnnmmnnoonmnnpllmmlnnkknnmljkkifcccddcffeiklllmnlmokkjigkjffihh
(PID.TID 0000.0001) //     39 mjjijlklkmomklmolkjlmihiihhjjijllijiiknnoonnnmllmmnonmmmlkkkllmljijjjjhiihedcdehgjjjkllllmnmpqlmkihjifegij
(PID.TID 0000.0001) //     38 mkjiijjkklmlklmnlkjlmihijiijkjlklijiklnnnonmmlkjkkmnnllljjjjjkkjhgggggefgghhhiikilmmlmmmmmllnmilkihhhgeekk
(PID.TID 0000.0001) //     37 mkjijjjjjjjjjkmmlkklljijjjjklmonljihkmmnnnmlkkjiiikmlkjjjiihhiigfefffgfghikmlkkklmnmmmmmmljijjgiihhhhgeeik
(PID.TID 0000.0001) //     36 lkjjjjjiiiihijllllllljjjjkkklmonmkihiklmmmlkkjjihhikjihhhggffggfffeghiijjkmonlklmnnmmmmmmkiggihhhgghiigdej
(PID.TID 0000.0001) //     35 lkjjjjjiiiihijlllllmlkjjjjjjkkmmlkjiijjklkkjjjjjjhhihgfffffeefghihhiklllkkmonlkklmmlllllljhffhhgggghjkheeh
(PID.TID 0000.0001) //     34 mljiijiiiijjjkllkklmlkjjjihhkjkkklkjihhjjjiiiihhhggggfeeeeeeffikkkjkmnnmkklnnmkijlmllkkkjihffhhfghhijkigfh
(PID.TID 0000.0001) //     33 nmkjiiiijkkkklllkkkllkjjjiggijihhlkjihgiijhgiihggfffghffffffghjmlmmlmnmljijmnnkhikllkjiiiihffghfghiijjhhgh
(PID.TID 0000.0001) //     32 omkjijjkkllllllkkkkkkjjjjihhiihfgijiiihiiiiilkhggeefhkihggghjkklnoommllkjhiklljiikkkjihgghiffgiggiiihgghhi
(PID.TID 0000.0001) //     31 nmlkkllllllkkkkkkkkkjiijkkjjkjigghhiijjjiijkmkhgkiihjllkighjmmmmnoomlkkjigghijiiijjihgfffghghijiiiihgedfij
(PID.TID 0000.0001) //     30 mlllmnmmlkkjjkkkkkkjiiiiiijklljhghhhgijjjklnkhhhkkmjlnonkghjnnnnnnnlkkkihfefggghgghhgfeeefggijjiihhhgfdfjk
(PID.TID 0000.0001) //     29 llllnpolkkjiijjkkkkjijjihhjkmmjhhhhhgjkjjmnokiijkknlnppqnihkoooonmlkkkjigddeeeffffffffffffgggghhhgggfgegkl
(PID.TID 0000.0001) //     28 llkllmnmkjiiiijkllkjjkmmkjjknnkihhghiklihkmmkjjjklmkmnpqmiilopoonljjjjjifdddeeeeeefgfefgggggffgggffggfgiln
(PID.TID 0000.0001) //     27 lkkkjjklkjjiiijkkkkjijkmljijkljjiggijjmkijkkjiijkkljknoolijkmnnmmkiiiiihedeeghfeffgigghhhhggfffffeegffgjkn
(PID.TID 0000.0001) //     26 kkkjihhjkkkjijjkkjjiihhjkkjjjjjkjhgkhilkjiihgffgijkiilmljiiiklmlljihhghhedgefihfhhghhhiiihgfedefeeeeefhjhg
(PID.TID 0000.0001) //     25 jklkjiijkkkjjjjjjjjighgikkjjiihjjigihjlkihgfeddeghhghjkjhiiiijkjjihhgfggddghghiijjghiiijjihfddffeffffgiiff
(PID.TID 0000.0001) //     24 jlmmllkkkkkjjiijiijkhhhjkjjjhgfhhhiihjlihhgfedddegffgiihgiiihhiihgggffffceghhhihkjhijiijjihfedefgggggghhfe
(PID.TID 0000.0001) //     23 ilmnnonkjjjjiiiiihhiihikkkkkggfhhijihklfghggggeddeeefhhggiihgghggeegeddddeggfhihkhfkmijkkjifeeefhhhhhihgfe
(PID.TID 0000.0001) //     22 hklmnnmkjjjiiiiihgeeggijjjkkhgghiihgfffeghhhjkhedeedeghgghhfdegfeccdccddefhikmllkhhlmkkkmijffdefhijhhhgeef
(PID.TID 0000.0001) //     21 giklllljjjiiiiiihfdegghhhijjhghjjigffeefghijkkifeedddeedeffdcdedcbbbccdefhikmllkjijlmllllhfeefighikhggedef
(PID.TID 0000.0001) //     20 ghijjiggijihhiihggffghhjjhiihghkihgffffghiiijjjhgfdcdecbbdcbbccccbbbcdefghijjjijiijlmmlkjgcdfghgfhkiffdfhg
(PID.TID 0000.0001) //     19 hhhiigegijihhjjiffhhhjhhihiigffiiggffgghiihhhijiihedhgdbbcbbdddcddcbcefhiiiggffgghikllkjhgddfggffjjhfffhjh
(PID.TID 0000.0001) //     18 hhhhhhiijjihiklkihkijkjhghjihgfgggghhhhhhhhhhhiiigddfgfeddddffffgggdeghjjjhfffffffhjjjihhfdeghgedeffffghhf
(PID.TID 0000.0001) //     17 ihhhhhiiiihhiklihhjgljjigijihhgggghjjihggghjjghhfdcdghihgghiigghkkmihijkkjighiihffgiihgfhgffhihecdfffggfec
(PID.TID 0000.0001) //     16 hhggggffghhhijiffhhhkijiiijiiihhhijkkjgfeffhihggedefhjllklnoljijnnonmkmljhihikkiffgggfedggghijjebdfffggfdb
(PID.TID 0000.0001) //     15 ihgggffeghhhilkiihiikiijjjiiijjiijllljgeeffgihhhggggjlnnmnqqnlkmoonoomoligggjmkifeeefeeeffghiijfeffffffedb
(PID.TID 0000.0001) //     14 ihhggfedfhghkkljgghiihijjjjjjkkjklmmmlgefghiiiijiiijlmnmmnqpnllmnonnonnljjgdilhheccceeffefeikghhhggffffffe
(PID.TID 0000.0001) //     13 hhhhhhgdgggfhijhfghhhhijjjjjkklllmllnojhhijjjijklllllmmkikmmlkkklmnnonnnkifdijhgdbbacdeedfdilghjjigffeefff
(PID.TID 0000.0001) //     12 ghhiiiigigfgghihhhhhhhijkkkkkllmmmkknnljjkkjjijklllkkkjgfhiiihhijklmnnnmjgeeggffcbcbceeccgfgifhjkieeeeefff
(PID.TID 0000.0001) //     11 fhgiijkifggggghhijihhijkllkkkkmmmljkmmlkkjjjiijkkkjiihgfffgfedefghikmnmkhedeecggbbcbcgfcffdgifghigcddffegf
(PID.TID 0000.0001) //     10 egggihihhhhhhhhhjjjiijkkllkjjilmlkjklllkjiijiiiiihgfffffeeeedbbceghijjjheccebbggaabbdghgeeehhegghdacdhifhf
(PID.TID 0000.0001) //      9 efghigfiiiiijihhijjiijkkkkkjjiklkjjjkkkjihijjiihgfedefggfffedb-abdefgfggdcceabdebbceghgfffffgfgggdbddffddd
(PID.TID 0000.0001) //      8 ffgijhghiihhijhhijjiiijjjjkkkjjkjjiiiiiihghijihfedddefghhggffc--aabcedffeeedccefddefihedfffeefghgecdddca-c
(PID.TID 0000.0001) //      7 ..........................................................................................................
(PID.TID 0000.0001) //      6 ..........................................................................................................
(PID.TID 0000.0001) //      5 ..........................................................................................................
(PID.TID 0000.0001) //      4 ..........................................................................................................
(PID.TID 0000.0001) //      3 ..........................................................................................................
(PID.TID 0000.0001) //      2 ..........................................................................................................
(PID.TID 0000.0001) //      1 ..........................................................................................................
(PID.TID 0000.0001) //      0 ..........................................................................................................
(PID.TID 0000.0001) //     -1 ..........................................................................................................
(PID.TID 0000.0001) //     -2 ..........................................................................................................
(PID.TID 0000.0001) //     -3 ..........................................................................................................
(PID.TID 0000.0001) //     -4 ..........................................................................................................
(PID.TID 0000.0001) //     -5 ..........................................................................................................
(PID.TID 0000.0001) //     -6 ..........................................................................................................
(PID.TID 0000.0001) //     -7 ..........................................................................................................
(PID.TID 0000.0001) // =======================================================
(PID.TID 0000.0001) // END OF FIELD                                          =
(PID.TID 0000.0001) // =======================================================
(PID.TID 0000.0001) 
(PID.TID 0000.0001) // =======================================================
(PID.TID 0000.0001) // Field Model Ro_surf (ini_masks_etc)
(PID.TID 0000.0001) // CMIN =          1.000000000000000E+32
(PID.TID 0000.0001) // CMAX =         -1.000000000000000E+32
(PID.TID 0000.0001) // CINT =          0.000000000000000E+00
(PID.TID 0000.0001) // SYMBOLS (CMIN->CMAX): -abcdefghijklmnopqrstuvwxyz+
(PID.TID 0000.0001) //                  0.0: .
(PID.TID 0000.0001) // RANGE I (Lo:Hi:Step):(    -7:    98:     1)
(PID.TID 0000.0001) // RANGE J (Lo:Hi:Step):(    98:    -7:    -1)
(PID.TID 0000.0001) // RANGE K (Lo:Hi:Step):(   1:   1:   1)
(PID.TID 0000.0001) // =======================================================
(PID.TID 0000.0001) // =======================================================
(PID.TID 0000.0001) // END OF FIELD                                          =
(PID.TID 0000.0001) // =======================================================
(PID.TID 0000.0001) 
(PID.TID 0000.0001) // =======================================================
(PID.TID 0000.0001) // Field hFacC at iteration          0
(PID.TID 0000.0001) // CMIN =          1.000000000000000E+00
(PID.TID 0000.0001) // CMAX =          1.000000000000000E+00
(PID.TID 0000.0001) // CINT =          0.000000000000000E+00
(PID.TID 0000.0001) // SYMBOLS (CMIN->CMAX): -abcdefghijklmnopqrstuvwxyz+
(PID.TID 0000.0001) //                  0.0: .
(PID.TID 0000.0001) // RANGE I (Lo:Hi:Step):(    -7:    98:     1)
(PID.TID 0000.0001) // RANGE J (Lo:Hi:Step):(    98:    -7:    -1)
(PID.TID 0000.0001) // RANGE K (Lo:Hi:Step):(   1:   1:   1)
(PID.TID 0000.0001) // =======================================================
(PID.TID 0000.0001) // =======================================================
(PID.TID 0000.0001) // END OF FIELD                                          =
(PID.TID 0000.0001) // =======================================================
(PID.TID 0000.0001) 
(PID.TID 0000.0001) // =======================================================
(PID.TID 0000.0001) // Field hFacW at iteration          0
(PID.TID 0000.0001) // CMIN =          1.000000000000000E+00
(PID.TID 0000.0001) // CMAX =          1.000000000000000E+00
(PID.TID 0000.0001) // CINT =          0.000000000000000E+00
(PID.TID 0000.0001) // SYMBOLS (CMIN->CMAX): -abcdefghijklmnopqrstuvwxyz+
(PID.TID 0000.0001) //                  0.0: .
(PID.TID 0000.0001) // RANGE I (Lo:Hi:Step):(    -7:    98:     1)
(PID.TID 0000.0001) // RANGE J (Lo:Hi:Step):(    98:    -7:    -1)
(PID.TID 0000.0001) // RANGE K (Lo:Hi:Step):(   1:   1:   1)
(PID.TID 0000.0001) // =======================================================
(PID.TID 0000.0001) // =======================================================
(PID.TID 0000.0001) // END OF FIELD                                          =
(PID.TID 0000.0001) // =======================================================
(PID.TID 0000.0001) 
(PID.TID 0000.0001) // =======================================================
(PID.TID 0000.0001) // Field hFacS at iteration          0
(PID.TID 0000.0001) // CMIN =          1.000000000000000E+00
(PID.TID 0000.0001) // CMAX =          1.000000000000000E+00
(PID.TID 0000.0001) // CINT =          0.000000000000000E+00
(PID.TID 0000.0001) // SYMBOLS (CMIN->CMAX): -abcdefghijklmnopqrstuvwxyz+
(PID.TID 0000.0001) //                  0.0: .
(PID.TID 0000.0001) // RANGE I (Lo:Hi:Step):(    -7:    98:     1)
(PID.TID 0000.0001) // RANGE J (Lo:Hi:Step):(    98:    -7:    -1)
(PID.TID 0000.0001) // RANGE K (Lo:Hi:Step):(   1:   1:   1)
(PID.TID 0000.0001) // =======================================================
(PID.TID 0000.0001) // =======================================================
(PID.TID 0000.0001) // END OF FIELD                                          =
(PID.TID 0000.0001) // =======================================================
(PID.TID 0000.0001) 
(PID.TID 0000.0001) 
(PID.TID 0000.0001) // =======================================================
(PID.TID 0000.0001) // Calendar configuration >>> START <<<
(PID.TID 0000.0001) // =======================================================
(PID.TID 0000.0001) 
(PID.TID 0000.0001) modelstart = /* Start time of the model integration [s] */
(PID.TID 0000.0001)                 0.000000000000000E+00
(PID.TID 0000.0001)     ;
(PID.TID 0000.0001) modelend  = /* End time of the model integration [s] */
(PID.TID 0000.0001)                 3.600000000000000E+03
(PID.TID 0000.0001)     ;
(PID.TID 0000.0001) modelStep = /* Time interval for a model forward step [s] */
(PID.TID 0000.0001)                 2.400000000000000E+02
(PID.TID 0000.0001)     ;
(PID.TID 0000.0001) usingGregorianCalendar= /* Calendar Type: Gregorian Calendar */
(PID.TID 0000.0001)                   T
(PID.TID 0000.0001)     ;
(PID.TID 0000.0001) usingJulianCalendar = /* Calendar Type: Julian Calendar */
(PID.TID 0000.0001)                   F
(PID.TID 0000.0001)     ;
(PID.TID 0000.0001) usingNoLeapYearCal  = /* Calendar Type: without Leap Year */
(PID.TID 0000.0001)                   F
(PID.TID 0000.0001)     ;
(PID.TID 0000.0001) usingModelCalendar  = /* Calendar Type: Model Calendar */
(PID.TID 0000.0001)                   F
(PID.TID 0000.0001)     ;
(PID.TID 0000.0001) modelStartDate YYYYMMDD = /* Model start date YYYY-MM-DD */
(PID.TID 0000.0001)                20030101
(PID.TID 0000.0001)     ;
(PID.TID 0000.0001)   modelStartDate HHMMSS = /* Model start date HH-MM-SS  */
(PID.TID 0000.0001)                       0
(PID.TID 0000.0001)     ;
(PID.TID 0000.0001) modelEndDate   YYYYMMDD = /* Model end date YYYY-MM-DD */
(PID.TID 0000.0001)                20030101
(PID.TID 0000.0001)     ;
(PID.TID 0000.0001)   modelEndDate   HHMMSS = /* Model end date HH-MM-SS  */
(PID.TID 0000.0001)                   10000
(PID.TID 0000.0001)     ;
(PID.TID 0000.0001) intyears = /* Number of calendar years affected by the integration */
(PID.TID 0000.0001)                       1
(PID.TID 0000.0001)     ;
(PID.TID 0000.0001) intmonths= /* Number of calendar months affected by the integration */
(PID.TID 0000.0001)                       1
(PID.TID 0000.0001)     ;
(PID.TID 0000.0001) intdays = /* Number of calendar days affected by the integration */
(PID.TID 0000.0001)                       1
(PID.TID 0000.0001)     ;
(PID.TID 0000.0001) modelIter0 = /* Base timestep number  */
(PID.TID 0000.0001)                       0
(PID.TID 0000.0001)     ;
(PID.TID 0000.0001) modelIterEnd = /* Final timestep number  */
(PID.TID 0000.0001)                      15
(PID.TID 0000.0001)     ;
(PID.TID 0000.0001) modelIntSteps= /* Number of model timesteps  */
(PID.TID 0000.0001)                      15
(PID.TID 0000.0001)     ;
(PID.TID 0000.0001) 
(PID.TID 0000.0001) // =======================================================
(PID.TID 0000.0001) // Calendar configuration  >>> END <<<
(PID.TID 0000.0001) // =======================================================
(PID.TID 0000.0001) 
(PID.TID 0000.0001) GAD_INIT_FIXED: GAD_OlMinSize=  4  0  2
(PID.TID 0000.0001) 
(PID.TID 0000.0001) // ===================================
(PID.TID 0000.0001) // GAD parameters :
(PID.TID 0000.0001) // ===================================
(PID.TID 0000.0001) tempAdvScheme =   /* Temp. Horiz.Advection scheme selector */
(PID.TID 0000.0001)                       7
(PID.TID 0000.0001)     ;
(PID.TID 0000.0001) tempVertAdvScheme =   /* Temp. Vert. Advection scheme selector */
(PID.TID 0000.0001)                       7
(PID.TID 0000.0001)     ;
(PID.TID 0000.0001) tempMultiDimAdvec =   /* use Muti-Dim Advec method for Temp */
(PID.TID 0000.0001)                   T
(PID.TID 0000.0001)     ;
(PID.TID 0000.0001) tempSOM_Advection = /* use 2nd Order Moment Advection for Temp */
(PID.TID 0000.0001)                   F
(PID.TID 0000.0001)     ;
(PID.TID 0000.0001) AdamsBashforthGt = /* apply Adams-Bashforth extrapolation on Gt */
(PID.TID 0000.0001)                   F
(PID.TID 0000.0001)     ;
(PID.TID 0000.0001) AdamsBashforth_T = /* apply Adams-Bashforth extrapolation on Temp */
(PID.TID 0000.0001)                   F
(PID.TID 0000.0001)     ;
(PID.TID 0000.0001) saltAdvScheme =   /* Salt. Horiz.advection scheme selector */
(PID.TID 0000.0001)                       7
(PID.TID 0000.0001)     ;
(PID.TID 0000.0001) saltVertAdvScheme =   /* Salt. Vert. Advection scheme selector */
(PID.TID 0000.0001)                       7
(PID.TID 0000.0001)     ;
(PID.TID 0000.0001) saltMultiDimAdvec =   /* use Muti-Dim Advec method for Salt */
(PID.TID 0000.0001)                   T
(PID.TID 0000.0001)     ;
(PID.TID 0000.0001) saltSOM_Advection = /* use 2nd Order Moment Advection for Salt */
(PID.TID 0000.0001)                   F
(PID.TID 0000.0001)     ;
(PID.TID 0000.0001) AdamsBashforthGs = /* apply Adams-Bashforth extrapolation on Gs */
(PID.TID 0000.0001)                   F
(PID.TID 0000.0001)     ;
(PID.TID 0000.0001) AdamsBashforth_S = /* apply Adams-Bashforth extrapolation on Salt */
(PID.TID 0000.0001)                   F
(PID.TID 0000.0001)     ;
(PID.TID 0000.0001) // ===================================
(PID.TID 0000.0001) OBCS_INIT_FIXED: Setting OB indices in Overlap
(PID.TID 0000.0001)  Sets OBS(i,bi,bj=   -7,  1,  1)=    8
(PID.TID 0000.0001)  Sets OBS(i,bi,bj=   -6,  1,  1)=    8
(PID.TID 0000.0001)  Sets OBS(i,bi,bj=   -5,  1,  1)=    8
(PID.TID 0000.0001)  Sets OBS(i,bi,bj=   -4,  1,  1)=    8
(PID.TID 0000.0001)  Sets OBS(i,bi,bj=   -3,  1,  1)=    8
(PID.TID 0000.0001)  Sets OBS(i,bi,bj=   -2,  1,  1)=    8
(PID.TID 0000.0001)  Sets OBS(i,bi,bj=   -1,  1,  1)=    8
(PID.TID 0000.0001)  Sets OBS(i,bi,bj=    0,  1,  1)=    8
(PID.TID 0000.0001)  Sets OBS(i,bi,bj=   91,  1,  1)=    8
(PID.TID 0000.0001)  Sets OBS(i,bi,bj=   92,  1,  1)=    8
(PID.TID 0000.0001)  Sets OBS(i,bi,bj=   93,  1,  1)=    8
(PID.TID 0000.0001)  Sets OBS(i,bi,bj=   94,  1,  1)=    8
(PID.TID 0000.0001)  Sets OBS(i,bi,bj=   95,  1,  1)=    8
(PID.TID 0000.0001)  Sets OBS(i,bi,bj=   96,  1,  1)=    8
(PID.TID 0000.0001)  Sets OBS(i,bi,bj=   97,  1,  1)=    8
(PID.TID 0000.0001)  Sets OBS(i,bi,bj=   98,  1,  1)=    8
(PID.TID 0000.0001) OBCS_INIT_FIXED: Setting OB indices in Overlap <= done
(PID.TID 0000.0001) 
(PID.TID 0000.0001) // =======================================================
(PID.TID 0000.0001) // External forcing (EXF) configuration >>> START <<<
(PID.TID 0000.0001) // =======================================================
(PID.TID 0000.0001) 
(PID.TID 0000.0001)  EXF general parameters:
(PID.TID 0000.0001) 
(PID.TID 0000.0001) exf_iprec = /* exf file precision */
(PID.TID 0000.0001)                      32
(PID.TID 0000.0001)     ;
(PID.TID 0000.0001) useExfYearlyFields = /* add extension _YEAR to input file names */
(PID.TID 0000.0001)                   T
(PID.TID 0000.0001)     ;
(PID.TID 0000.0001) twoDigitYear = /* use 2-digit year extension */
(PID.TID 0000.0001)                   F
(PID.TID 0000.0001)     ;
(PID.TID 0000.0001) useExfCheckRange = /* check for fields range */
(PID.TID 0000.0001)                   F
(PID.TID 0000.0001)     ;
(PID.TID 0000.0001) exf_output_interp = /* output directly interpolation result */
(PID.TID 0000.0001)                   F
(PID.TID 0000.0001)     ;
(PID.TID 0000.0001) exf_debugLev = /* select EXF-debug printing level */
(PID.TID 0000.0001)                       2
(PID.TID 0000.0001)     ;
(PID.TID 0000.0001) exf_monFreq  = /* EXF monitor frequency [ s ] */
(PID.TID 0000.0001)                 2.400000000000000E+02
(PID.TID 0000.0001)     ;
(PID.TID 0000.0001) repeatPeriod = /* period for cycling forcing dataset [ s ] */
(PID.TID 0000.0001)                 0.000000000000000E+00
(PID.TID 0000.0001)     ;
(PID.TID 0000.0001) climTempFreeze= /* Minimum climatological temperature [deg.C] */
(PID.TID 0000.0001)                -1.900000000000000E+00
(PID.TID 0000.0001)     ;
(PID.TID 0000.0001) windStressMax = /* Maximum absolute windstress [ Pa ] */
(PID.TID 0000.0001)                 2.000000000000000E+00
(PID.TID 0000.0001)     ;
(PID.TID 0000.0001) stressIsOnCgrid = /* set u,v_stress on Arakawa C-grid */
(PID.TID 0000.0001)                   F
(PID.TID 0000.0001)     ;
(PID.TID 0000.0001) rotateStressOnAgrid = /* rotate u,v_stress on Arakawa A-grid */
(PID.TID 0000.0001)                   F
(PID.TID 0000.0001)     ;
(PID.TID 0000.0001) cen2kel = /* conversion of deg. Centigrade to Kelvin [K] */
(PID.TID 0000.0001)                 2.731500000000000E+02
(PID.TID 0000.0001)     ;
(PID.TID 0000.0001) gravity_mks= /* gravitational acceleration [m/s^2] */
(PID.TID 0000.0001)                 9.810000000000000E+00
(PID.TID 0000.0001)     ;
(PID.TID 0000.0001) atmrho =  /* mean atmospheric density [kg/m^3] */
(PID.TID 0000.0001)                 1.200000000000000E+00
(PID.TID 0000.0001)     ;
(PID.TID 0000.0001) atmcp =  /* mean atmospheric specific heat [J/kg/K] */
(PID.TID 0000.0001)                 1.005000000000000E+03
(PID.TID 0000.0001)     ;
(PID.TID 0000.0001) flamb =  /* latent heat of evaporation [J/kg] */
(PID.TID 0000.0001)                 2.500000000000000E+06
(PID.TID 0000.0001)     ;
(PID.TID 0000.0001) flami =  /* latent heat of pure-ice melting [J/kg] */
(PID.TID 0000.0001)                 3.340000000000000E+05
(PID.TID 0000.0001)     ;
(PID.TID 0000.0001) cvapor_fac = /* const. for Saturation calculation [?] */
(PID.TID 0000.0001)                 6.403800000000000E+05
(PID.TID 0000.0001)     ;
(PID.TID 0000.0001) cvapor_exp = /* const. for Saturation calculation [?] */
(PID.TID 0000.0001)                 5.107400000000000E+03
(PID.TID 0000.0001)     ;
(PID.TID 0000.0001) cvapor_fac_ice= /* const. for Saturation calculation [?] */
(PID.TID 0000.0001)                 1.163780000000000E+07
(PID.TID 0000.0001)     ;
(PID.TID 0000.0001) cvapor_exp_ice= /* const. for Saturation calculation [?] */
(PID.TID 0000.0001)                 5.897800000000000E+03
(PID.TID 0000.0001)     ;
(PID.TID 0000.0001) humid_fac = /* humidity coef. in virtual temp. [(kg/kg)^-1] */
(PID.TID 0000.0001)                 6.060000000000000E-01
(PID.TID 0000.0001)     ;
(PID.TID 0000.0001) gamma_blk = /* adiabatic lapse rate [?] */
(PID.TID 0000.0001)                 1.000000000000000E-02
(PID.TID 0000.0001)     ;
(PID.TID 0000.0001) saltsat = /* reduction of Qsat over salty water [-] */
(PID.TID 0000.0001)                 9.800000000000000E-01
(PID.TID 0000.0001)     ;
(PID.TID 0000.0001) noNegativeEvap = /* prevent negative Evaporation */
(PID.TID 0000.0001)                   F
(PID.TID 0000.0001)     ;
(PID.TID 0000.0001) sstExtrapol = /* extrapolation coeff from lev. 1 & 2 to surf [-] */
(PID.TID 0000.0001)                 0.000000000000000E+00
(PID.TID 0000.0001)     ;
(PID.TID 0000.0001) cDrag_1 = /* coef used in drag calculation [?] */
(PID.TID 0000.0001)                 2.700000000000000E-03
(PID.TID 0000.0001)     ;
(PID.TID 0000.0001) cDrag_2 = /* coef used in drag calculation [?] */
(PID.TID 0000.0001)                 1.420000000000000E-04
(PID.TID 0000.0001)     ;
(PID.TID 0000.0001) cDrag_3 = /* coef used in drag calculation [?] */
(PID.TID 0000.0001)                 7.640000000000000E-05
(PID.TID 0000.0001)     ;
(PID.TID 0000.0001) cStanton_1 = /* coef used in Stanton number calculation [?] */
(PID.TID 0000.0001)                 3.270000000000000E-02
(PID.TID 0000.0001)     ;
(PID.TID 0000.0001) cStanton_2 = /* coef used in Stanton number calculation [?] */
(PID.TID 0000.0001)                 1.800000000000000E-02
(PID.TID 0000.0001)     ;
(PID.TID 0000.0001) cDalton = /* coef used in Dalton number calculation [?] */
(PID.TID 0000.0001)                 3.460000000000000E-02
(PID.TID 0000.0001)     ;
(PID.TID 0000.0001) exf_scal_BulkCdn= /* Drag coefficient scaling factor [-] */
(PID.TID 0000.0001)                 9.997000000000000E-01
(PID.TID 0000.0001)     ;
(PID.TID 0000.0001) zolmin = /* minimum stability parameter [?] */
(PID.TID 0000.0001)                -1.000000000000000E+02
(PID.TID 0000.0001)     ;
(PID.TID 0000.0001) psim_fac = /* coef used in turbulent fluxes calculation [-] */
(PID.TID 0000.0001)                 5.000000000000000E+00
(PID.TID 0000.0001)     ;
(PID.TID 0000.0001) zref =  /* reference height [ m ] */
(PID.TID 0000.0001)                 1.000000000000000E+01
(PID.TID 0000.0001)     ;
(PID.TID 0000.0001) hu =  /* height of mean wind [ m ] */
(PID.TID 0000.0001)                 1.000000000000000E+01
(PID.TID 0000.0001)     ;
(PID.TID 0000.0001) ht =  /* height of mean temperature [ m ] */
(PID.TID 0000.0001)                 2.000000000000000E+00
(PID.TID 0000.0001)     ;
(PID.TID 0000.0001) hq =  /* height of mean spec.humidity [ m ] */
(PID.TID 0000.0001)                 2.000000000000000E+00
(PID.TID 0000.0001)     ;
(PID.TID 0000.0001) uMin = /* minimum wind speed [m/s] */
(PID.TID 0000.0001)                 5.000000000000000E-01
(PID.TID 0000.0001)     ;
(PID.TID 0000.0001) useStabilityFct_overIce= /* transfert Coeffs over sea-ice depend on stability */
(PID.TID 0000.0001)                   F
(PID.TID 0000.0001)     ;
(PID.TID 0000.0001) exf_iceCd = /* drag coefficient over sea-ice (fixed) [-] */
(PID.TID 0000.0001)                 1.630000000000000E-03
(PID.TID 0000.0001)     ;
(PID.TID 0000.0001) exf_iceCe = /* transfert coeff. over sea-ice, for Evap (fixed) [-] */
(PID.TID 0000.0001)                 1.630000000000000E-03
(PID.TID 0000.0001)     ;
(PID.TID 0000.0001) exf_iceCh = /* transfert coeff. over sea-ice, Sens.Heat.(fixed)[-] */
(PID.TID 0000.0001)                 1.630000000000000E-03
(PID.TID 0000.0001)     ;
(PID.TID 0000.0001) exf_albedo =  /* Sea-water albedo [-] */
(PID.TID 0000.0001)                 1.000000000000000E-01
(PID.TID 0000.0001)     ;
(PID.TID 0000.0001) useExfZenAlbedo = /* Sea-water albedo varies with zenith angle */
(PID.TID 0000.0001)                   F
(PID.TID 0000.0001)     ;
(PID.TID 0000.0001) select_ZenAlbedo = /* Sea-water albedo computation method */
(PID.TID 0000.0001)                       0
(PID.TID 0000.0001)     ;
(PID.TID 0000.0001) useExfZenIncoming = /* compute incoming solar radiation */
(PID.TID 0000.0001)                   F
(PID.TID 0000.0001)     ;
(PID.TID 0000.0001) ocean_emissivity = /* longwave ocean-surface emissivity [-] */
(PID.TID 0000.0001)                 9.700176366843034E-01
(PID.TID 0000.0001)     ;
(PID.TID 0000.0001) ice_emissivity = /* longwave seaice emissivity [-] */
(PID.TID 0000.0001)                 9.500000000000000E-01
(PID.TID 0000.0001)     ;
(PID.TID 0000.0001) snow_emissivity = /* longwave snow  emissivity [-] */
(PID.TID 0000.0001)                 9.500000000000000E-01
(PID.TID 0000.0001)     ;
(PID.TID 0000.0001) 
(PID.TID 0000.0001)  EXF main CPP flags:
(PID.TID 0000.0001) 
(PID.TID 0000.0001) // USE_EXF_INTERPOLATION:              defined
(PID.TID 0000.0001) // ALLOW_ATM_TEMP:                     defined
(PID.TID 0000.0001) // ALLOW_ATM_WIND (useAtmWind):        defined
(PID.TID 0000.0001) // ALLOW_DOWNWARD_RADIATION:           defined
(PID.TID 0000.0001) // ALLOW_BULKFORMULAE:                 defined
(PID.TID 0000.0001) 
(PID.TID 0000.0001)    Zonal wind forcing starts at                          0.
(PID.TID 0000.0001)    Zonal wind forcing period is                      10800.
(PID.TID 0000.0001)    Zonal wind forcing repeat-cycle is                    0.
(PID.TID 0000.0001)    Zonal wind forcing is read from file:
(PID.TID 0000.0001)    >> jra55/jra55_u10m <<
(PID.TID 0000.0001)    interpolate "uwind" (method= 12 ):
(PID.TID 0000.0001)    lon0=   0.00000, nlon=   640, lon_inc= 0.5625000
(PID.TID 0000.0001)    lat0= -89.57009, nlat=   320, inc(min,max)= 0.55691 0.56162
(PID.TID 0000.0001) 
(PID.TID 0000.0001)    Meridional wind forcing starts at                     0.
(PID.TID 0000.0001)    Meridional wind forcing period is                 10800.
(PID.TID 0000.0001)    Meridional wind forcing repeat-cycle is               0.
(PID.TID 0000.0001)    Meridional wind forcing is read from file:
(PID.TID 0000.0001)    >> jra55/jra55_v10m <<
(PID.TID 0000.0001)    interpolate "vwind" (method= 22 ):
(PID.TID 0000.0001)    lon0=   0.00000, nlon=   640, lon_inc= 0.5625000
(PID.TID 0000.0001)    lat0= -89.57009, nlat=   320, inc(min,max)= 0.55691 0.56162
(PID.TID 0000.0001)     Interp. U & V comp. together: uvInterp_wind =    T
(PID.TID 0000.0001) 
(PID.TID 0000.0001)    Atmospheric temperature starts at                     0.
(PID.TID 0000.0001)    Atmospheric temperature period is                 10800.
(PID.TID 0000.0001)    Atmospheric temperature repeat-cycle is               0.
(PID.TID 0000.0001)    Atmospheric temperature is read from file:
(PID.TID 0000.0001)    >> jra55/jra55_tmp2m_degC <<
(PID.TID 0000.0001)    interpolate "atemp" (method=  1 ):
(PID.TID 0000.0001)    lon0=   0.00000, nlon=   640, lon_inc= 0.5625000
(PID.TID 0000.0001)    lat0= -89.57009, nlat=   320, inc(min,max)= 0.55691 0.56162
(PID.TID 0000.0001) 
(PID.TID 0000.0001)    Atmospheric specific humidity starts at               0.
(PID.TID 0000.0001)    Atmospheric specific humidity period is           10800.
(PID.TID 0000.0001)    Atmospheric specific humidity rep-cycle is            0.
(PID.TID 0000.0001)    Atmospheric specific humidity is read from file:
(PID.TID 0000.0001)    >> jra55/jra55_spfh2m <<
(PID.TID 0000.0001)    interpolate "aqh" (method=  1 ):
(PID.TID 0000.0001)    lon0=   0.00000, nlon=   640, lon_inc= 0.5625000
(PID.TID 0000.0001)    lat0= -89.57009, nlat=   320, inc(min,max)= 0.55691 0.56162
(PID.TID 0000.0001) 
(PID.TID 0000.0001) // ALLOW_READ_TURBFLUXES:          NOT defined
(PID.TID 0000.0001) // EXF_READ_EVAP:                  NOT defined
(PID.TID 0000.0001) 
(PID.TID 0000.0001)    Precipitation data starts at                       5400.
(PID.TID 0000.0001)    Precipitation data period is                      10800.
(PID.TID 0000.0001)    Precipitation data repeat-cycle is                    0.
(PID.TID 0000.0001)    Precipitation data is read from file:
(PID.TID 0000.0001)    >> jra55/jra55_rain <<
(PID.TID 0000.0001)    interpolate "precip" (method=  1 ):
(PID.TID 0000.0001)    lon0=   0.00000, nlon=   640, lon_inc= 0.5625000
(PID.TID 0000.0001)    lat0= -89.57009, nlat=   320, inc(min,max)= 0.55691 0.56162
(PID.TID 0000.0001) 
(PID.TID 0000.0001) // ALLOW_RUNOFF:                       defined
(PID.TID 0000.0001)    Runoff data period is                               -12.
(PID.TID 0000.0001)    Runoff data is read from file:
(PID.TID 0000.0001)    >> runoff1p2472-360x180x12.bin <<
(PID.TID 0000.0001)    interpolate "runoff" (method=  1 ):
(PID.TID 0000.0001)    lon0=   0.50000, nlon=   360, lon_inc= 1.0000000
(PID.TID 0000.0001)    lat0= -89.50000, nlat=   180, lat_inc= 1.0000000
(PID.TID 0000.0001) 
(PID.TID 0000.0001) // ALLOW_RUNOFTEMP:                NOT defined
(PID.TID 0000.0001) // ALLOW_SALTFLX:                      defined
(PID.TID 0000.0001) 
(PID.TID 0000.0001)    Downward shortwave flux starts at                  5400.
(PID.TID 0000.0001)    Downward shortwave flux period is                 10800.
(PID.TID 0000.0001)    Downward shortwave flux repeat-cycle is               0.
(PID.TID 0000.0001)    Downward shortwave flux is read from file:
(PID.TID 0000.0001)    >> jra55/jra55_dsw <<
(PID.TID 0000.0001)    interpolate "swdown" (method=  1 ):
(PID.TID 0000.0001)    lon0=   0.00000, nlon=   640, lon_inc= 0.5625000
(PID.TID 0000.0001)    lat0= -89.57009, nlat=   320, inc(min,max)= 0.55691 0.56162
(PID.TID 0000.0001) 
(PID.TID 0000.0001)    Downward longwave flux starts at                   5400.
(PID.TID 0000.0001)    Downward longwave flux period is                  10800.
(PID.TID 0000.0001)    Downward longwave flux repeat-cycle is                0.
(PID.TID 0000.0001)    Downward longwave flux is read from file:
(PID.TID 0000.0001)    >> jra55/jra55_dlw <<
(PID.TID 0000.0001)    interpolate "lwdown" (method=  1 ):
(PID.TID 0000.0001)    lon0=   0.00000, nlon=   640, lon_inc= 0.5625000
(PID.TID 0000.0001)    lat0= -89.57009, nlat=   320, inc(min,max)= 0.55691 0.56162
(PID.TID 0000.0001) 
(PID.TID 0000.0001)    Atmospheric pressure forcing starts at                0.
(PID.TID 0000.0001)    Atmospheric pressure forcing period is            10800.
(PID.TID 0000.0001)    Atmospheric pressure forcing rep-cycle is             0.
(PID.TID 0000.0001)    Atmospheric pressure forcing is read from file:
(PID.TID 0000.0001)    >> jra55/jra55_pres <<
(PID.TID 0000.0001)    interpolate "apressure" (method=  1 ):
(PID.TID 0000.0001)    lon0=   0.00000, nlon=   640, lon_inc= 0.5625000
(PID.TID 0000.0001)    lat0= -89.57009, nlat=   320, inc(min,max)= 0.55691 0.56162
(PID.TID 0000.0001) 
(PID.TID 0000.0001)    Tidal geopotential starts at                       1800.
(PID.TID 0000.0001)    Tidal geopotential period is                       3600.
(PID.TID 0000.0001)    Tidal geopotential repeat-cycle is                    0.
(PID.TID 0000.0001)    Tidal geopotential is read from file:
(PID.TID 0000.0001)    >> jra55/tide <<
(PID.TID 0000.0001)    interpolate "tidePot" (method=  1 ):
(PID.TID 0000.0001)    lon0=   0.00000, nlon=   640, lon_inc= 0.5625000
(PID.TID 0000.0001)    lat0= -89.57009, nlat=   320, inc(min,max)= 0.55691 0.56162
(PID.TID 0000.0001) 
(PID.TID 0000.0001) // =======================================================
(PID.TID 0000.0001) // External forcing (EXF) climatology configuration :
(PID.TID 0000.0001) // =======================================================
(PID.TID 0000.0001) 
(PID.TID 0000.0001) // ALLOW_CLIMSST_RELAXATION:       NOT defined
(PID.TID 0000.0001) 
(PID.TID 0000.0001) // ALLOW_CLIMSSS_RELAXATION:       NOT defined
(PID.TID 0000.0001) 
(PID.TID 0000.0001) // =======================================================
(PID.TID 0000.0001) // External forcing (EXF) configuration  >>> END <<<
(PID.TID 0000.0001) // =======================================================
(PID.TID 0000.0001) 
(PID.TID 0000.0001) ------------------------------------------------------------
(PID.TID 0000.0001) DIAGNOSTICS_SET_LEVELS: done
(PID.TID 0000.0001)  Total Nb of available Diagnostics: ndiagt=   213
(PID.TID 0000.0001)  write list of available Diagnostics to file: available_diagnostics.log
(PID.TID 0000.0001) SETDIAG: Allocate  1 x  1 Levels for Diagnostic #    23 ETAN
(PID.TID 0000.0001) SETDIAG: Allocate  1 x  1 Levels for Diagnostic #    80 oceTAUX
(PID.TID 0000.0001) SETDIAG: Allocate  1 x  1 Levels for Diagnostic #    81 oceTAUY
(PID.TID 0000.0001) SETDIAG: Allocate  1 x  1 Levels for Diagnostic #   185 EXFuwind
(PID.TID 0000.0001) SETDIAG: Allocate  1 x  1 Levels for Diagnostic #   186 EXFvwind
(PID.TID 0000.0001) SETDIAG: Allocate100 x  1 Levels for Diagnostic #    26 THETA
(PID.TID 0000.0001) SETDIAG: Allocate100 x  1 Levels for Diagnostic #    27 SALT
(PID.TID 0000.0001) SETDIAG: Allocate100 x  1 Levels for Diagnostic #    30 UVEL
(PID.TID 0000.0001) SETDIAG: Allocate100 x  1 Levels for Diagnostic #    31 VVEL
(PID.TID 0000.0001) SETDIAG: Allocate100 x  1 Levels for Diagnostic #    32 WVEL
(PID.TID 0000.0001)   space allocated for all diagnostics:     505 levels
(PID.TID 0000.0001)   set mate pointer for diag #    80  oceTAUX  , Parms: UU      U1 , mate:    81
(PID.TID 0000.0001)   set mate pointer for diag #    81  oceTAUY  , Parms: VV      U1 , mate:    80
(PID.TID 0000.0001)   set mate pointer for diag #    30  UVEL     , Parms: UUR     MR , mate:    31
(PID.TID 0000.0001)   set mate pointer for diag #    31  VVEL     , Parms: VVR     MR , mate:    30
(PID.TID 0000.0001) DIAGNOSTICS_SET_POINTERS: Set levels for Outp.Stream: diags/surface
(PID.TID 0000.0001)  Levels:       1.
(PID.TID 0000.0001) DIAGNOSTICS_SET_POINTERS: Set levels for Outp.Stream: diags/interior
(PID.TID 0000.0001)  Levels:       1.   2.   3.   4.   5.   6.   7.   8.   9.  10.  11.  12.  13.  14.  15.  16.  17.  18.  19.  20.
(PID.TID 0000.0001)  Levels:      21.  22.  23.  24.  25.  26.  27.  28.  29.  30.  31.  32.  33.  34.  35.  36.  37.  38.  39.  40.
(PID.TID 0000.0001)  Levels:      41.  42.  43.  44.  45.  46.  47.  48.  49.  50.  51.  52.  53.  54.  55.  56.  57.  58.  59.  60.
(PID.TID 0000.0001)  Levels:      61.  62.  63.  64.  65.  66.  67.  68.  69.  70.  71.  72.  73.  74.  75.  76.  77.  78.  79.  80.
(PID.TID 0000.0001)  Levels:      81.  82.  83.  84.  85.  86.  87.  88.  89.  90.  91.  92.  93.  94.  95.  96.  97.  98.  99. 100.
(PID.TID 0000.0001) DIAGNOSTICS_SET_POINTERS: done
(PID.TID 0000.0001) ------------------------------------------------------------
(PID.TID 0000.0001) DIAGSTATS_SET_REGIONS: define no region
(PID.TID 0000.0001) ------------------------------------------------------------
(PID.TID 0000.0001)   space allocated for all stats-diags:       0 levels
(PID.TID 0000.0001) DIAGSTATS_SET_POINTERS: done
(PID.TID 0000.0001) ------------------------------------------------------------
(PID.TID 0000.0001) INI_GLOBAL_DOMAIN: Found   0 CS-corner Pts in the domain
(PID.TID 0000.0001) %MON fCori_max                    =   1.0041454242952E-04
(PID.TID 0000.0001) %MON fCori_min                    =   6.5455131380473E-05
(PID.TID 0000.0001) %MON fCori_mean                   =   8.3776427441428E-05
(PID.TID 0000.0001) %MON fCori_sd                     =   1.0008726860381E-05
(PID.TID 0000.0001) %MON fCoriG_max                   =   1.0044048666784E-04
(PID.TID 0000.0001) %MON fCoriG_min                   =   6.5416192804139E-05
(PID.TID 0000.0001) %MON fCoriG_mean                  =   8.3781498070154E-05
(PID.TID 0000.0001) %MON fCoriG_sd                    =   1.0007203923655E-05
(PID.TID 0000.0001) %MON fCoriCos_max                 =   1.3032901415565E-04
(PID.TID 0000.0001) %MON fCoriCos_min                 =   1.0576835927387E-04
(PID.TID 0000.0001) %MON fCoriCos_mean                =   1.1875033868389E-04
(PID.TID 0000.0001) %MON fCoriCos_sd                  =   7.0511565763514E-06
(PID.TID 0000.0001) INI_CG2D: CG2D normalisation factor =  1.4987184796302395E-04
(PID.TID 0000.0001) INI_CG2D: cg2dTolerance = 7.057380800110476E-12 (Area=1.1301464652E+13)
(PID.TID 0000.0001) 
(PID.TID 0000.0001) // =======================================================
(PID.TID 0000.0001) // Model configuration
(PID.TID 0000.0001) // =======================================================
(PID.TID 0000.0001) //
(PID.TID 0000.0001) // "Physical" paramters ( PARM01 in namelist )
(PID.TID 0000.0001) //
(PID.TID 0000.0001) buoyancyRelation = /* Type of relation to get Buoyancy */
(PID.TID 0000.0001)               'OCEANIC'
(PID.TID 0000.0001)     ;
(PID.TID 0000.0001) fluidIsAir   =  /* fluid major constituent is Air */
(PID.TID 0000.0001)                   F
(PID.TID 0000.0001)     ;
(PID.TID 0000.0001) fluidIsWater =  /* fluid major constituent is Water */
(PID.TID 0000.0001)                   T
(PID.TID 0000.0001)     ;
(PID.TID 0000.0001) usingPCoords =  /* use p (or p*) vertical coordinate */
(PID.TID 0000.0001)                   F
(PID.TID 0000.0001)     ;
(PID.TID 0000.0001) usingZCoords =  /* use z (or z*) vertical coordinate */
(PID.TID 0000.0001)                   T
(PID.TID 0000.0001)     ;
(PID.TID 0000.0001) tRef =   /* Reference temperature profile ( oC or K ) */
(PID.TID 0000.0001)     5 @  1.889000000000000E+01,             /* K =  1:  5 */
(PID.TID 0000.0001)                 1.887000000000000E+01,      /* K =  6 */
(PID.TID 0000.0001)                 1.885000000000000E+01,      /* K =  7 */
(PID.TID 0000.0001)                 1.882000000000000E+01,      /* K =  8 */
(PID.TID 0000.0001)                 1.880000000000000E+01,      /* K =  9 */
(PID.TID 0000.0001)                 1.873000000000000E+01,      /* K = 10 */
(PID.TID 0000.0001)                 1.863000000000000E+01,      /* K = 11 */
(PID.TID 0000.0001)                 1.849000000000000E+01,      /* K = 12 */
(PID.TID 0000.0001)                 1.828000000000000E+01,      /* K = 13 */
(PID.TID 0000.0001)                 1.808000000000000E+01,      /* K = 14 */
(PID.TID 0000.0001)                 1.786000000000000E+01,      /* K = 15 */
(PID.TID 0000.0001)                 1.763000000000000E+01,      /* K = 16 */
(PID.TID 0000.0001)                 1.740000000000000E+01,      /* K = 17 */
(PID.TID 0000.0001)                 1.718000000000000E+01,      /* K = 18 */
(PID.TID 0000.0001)                 1.695000000000000E+01,      /* K = 19 */
(PID.TID 0000.0001)                 1.673000000000000E+01,      /* K = 20 */
(PID.TID 0000.0001)                 1.652000000000000E+01,      /* K = 21 */
(PID.TID 0000.0001)                 1.631000000000000E+01,      /* K = 22 */
(PID.TID 0000.0001)                 1.610000000000000E+01,      /* K = 23 */
(PID.TID 0000.0001)                 1.589000000000000E+01,      /* K = 24 */
(PID.TID 0000.0001)                 1.569000000000000E+01,      /* K = 25 */
(PID.TID 0000.0001)                 1.549000000000000E+01,      /* K = 26 */
(PID.TID 0000.0001)                 1.528000000000000E+01,      /* K = 27 */
(PID.TID 0000.0001)                 1.508000000000000E+01,      /* K = 28 */
(PID.TID 0000.0001)                 1.488000000000000E+01,      /* K = 29 */
(PID.TID 0000.0001)                 1.467000000000000E+01,      /* K = 30 */
(PID.TID 0000.0001)                 1.447000000000000E+01,      /* K = 31 */
(PID.TID 0000.0001)                 1.425000000000000E+01,      /* K = 32 */
(PID.TID 0000.0001)                 1.403000000000000E+01,      /* K = 33 */
(PID.TID 0000.0001)                 1.380000000000000E+01,      /* K = 34 */
(PID.TID 0000.0001)                 1.355000000000000E+01,      /* K = 35 */
(PID.TID 0000.0001)                 1.329000000000000E+01,      /* K = 36 */
(PID.TID 0000.0001)                 1.301000000000000E+01,      /* K = 37 */
(PID.TID 0000.0001)                 1.273000000000000E+01,      /* K = 38 */
(PID.TID 0000.0001)                 1.242000000000000E+01,      /* K = 39 */
(PID.TID 0000.0001)                 1.211000000000000E+01,      /* K = 40 */
(PID.TID 0000.0001)                 1.178000000000000E+01,      /* K = 41 */
(PID.TID 0000.0001)                 1.143000000000000E+01,      /* K = 42 */
(PID.TID 0000.0001)                 1.107000000000000E+01,      /* K = 43 */
(PID.TID 0000.0001)                 1.070000000000000E+01,      /* K = 44 */
(PID.TID 0000.0001)                 1.031000000000000E+01,      /* K = 45 */
(PID.TID 0000.0001)                 9.930000000000000E+00,      /* K = 46 */
(PID.TID 0000.0001)                 9.529999999999999E+00,      /* K = 47 */
(PID.TID 0000.0001)                 9.109999999999999E+00,      /* K = 48 */
(PID.TID 0000.0001)                 8.710000000000001E+00,      /* K = 49 */
(PID.TID 0000.0001)                 8.289999999999999E+00,      /* K = 50 */
(PID.TID 0000.0001)                 7.890000000000000E+00,      /* K = 51 */
(PID.TID 0000.0001)                 7.510000000000000E+00,      /* K = 52 */
(PID.TID 0000.0001)                 7.130000000000000E+00,      /* K = 53 */
(PID.TID 0000.0001)                 6.780000000000000E+00,      /* K = 54 */
(PID.TID 0000.0001)                 6.440000000000000E+00,      /* K = 55 */
(PID.TID 0000.0001)                 6.110000000000000E+00,      /* K = 56 */
(PID.TID 0000.0001)                 5.810000000000000E+00,      /* K = 57 */
(PID.TID 0000.0001)                 5.510000000000000E+00,      /* K = 58 */
(PID.TID 0000.0001)                 5.230000000000000E+00,      /* K = 59 */
(PID.TID 0000.0001)                 4.970000000000000E+00,      /* K = 60 */
(PID.TID 0000.0001)                 4.730000000000000E+00,      /* K = 61 */
(PID.TID 0000.0001)                 4.510000000000000E+00,      /* K = 62 */
(PID.TID 0000.0001)                 4.300000000000000E+00,      /* K = 63 */
(PID.TID 0000.0001)                 4.110000000000000E+00,      /* K = 64 */
(PID.TID 0000.0001)                 3.940000000000000E+00,      /* K = 65 */
(PID.TID 0000.0001)                 3.780000000000000E+00,      /* K = 66 */
(PID.TID 0000.0001)                 3.630000000000000E+00,      /* K = 67 */
(PID.TID 0000.0001)                 3.500000000000000E+00,      /* K = 68 */
(PID.TID 0000.0001)                 3.380000000000000E+00,      /* K = 69 */
(PID.TID 0000.0001)                 3.250000000000000E+00,      /* K = 70 */
(PID.TID 0000.0001)                 3.140000000000000E+00,      /* K = 71 */
(PID.TID 0000.0001)                 3.040000000000000E+00,      /* K = 72 */
(PID.TID 0000.0001)                 2.940000000000000E+00,      /* K = 73 */
(PID.TID 0000.0001)                 2.830000000000000E+00,      /* K = 74 */
(PID.TID 0000.0001)                 2.740000000000000E+00,      /* K = 75 */
(PID.TID 0000.0001)                 2.640000000000000E+00,      /* K = 76 */
(PID.TID 0000.0001)                 2.540000000000000E+00,      /* K = 77 */
(PID.TID 0000.0001)                 2.450000000000000E+00,      /* K = 78 */
(PID.TID 0000.0001)                 2.360000000000000E+00,      /* K = 79 */
(PID.TID 0000.0001)                 2.270000000000000E+00,      /* K = 80 */
(PID.TID 0000.0001)                 2.190000000000000E+00,      /* K = 81 */
(PID.TID 0000.0001)                 2.100000000000000E+00,      /* K = 82 */
(PID.TID 0000.0001)                 2.030000000000000E+00,      /* K = 83 */
(PID.TID 0000.0001)                 1.950000000000000E+00,      /* K = 84 */
(PID.TID 0000.0001)                 1.860000000000000E+00,      /* K = 85 */
(PID.TID 0000.0001)                 1.780000000000000E+00,      /* K = 86 */
(PID.TID 0000.0001)                 1.700000000000000E+00,      /* K = 87 */
(PID.TID 0000.0001)                 1.630000000000000E+00,      /* K = 88 */
(PID.TID 0000.0001)                 1.550000000000000E+00,      /* K = 89 */
(PID.TID 0000.0001)                 1.480000000000000E+00,      /* K = 90 */
(PID.TID 0000.0001)                 1.410000000000000E+00,      /* K = 91 */
(PID.TID 0000.0001)                 1.340000000000000E+00,      /* K = 92 */
(PID.TID 0000.0001)                 1.270000000000000E+00,      /* K = 93 */
(PID.TID 0000.0001)                 1.200000000000000E+00,      /* K = 94 */
(PID.TID 0000.0001)                 1.130000000000000E+00,      /* K = 95 */
(PID.TID 0000.0001)                 1.060000000000000E+00,      /* K = 96 */
(PID.TID 0000.0001)                 1.000000000000000E+00,      /* K = 97 */
(PID.TID 0000.0001)                 9.600000000000000E-01,      /* K = 98 */
(PID.TID 0000.0001)                 9.300000000000000E-01,      /* K = 99 */
(PID.TID 0000.0001)                 9.100000000000000E-01       /* K =100 */
(PID.TID 0000.0001)     ;
(PID.TID 0000.0001) sRef =   /* Reference salinity profile ( psu ) */
(PID.TID 0000.0001)     6 @  3.484000000000000E+01,             /* K =  1:  6 */
(PID.TID 0000.0001)     3 @  3.485000000000000E+01,             /* K =  7:  9 */
(PID.TID 0000.0001)                 3.486000000000000E+01,      /* K = 10 */
(PID.TID 0000.0001)                 3.487000000000000E+01,      /* K = 11 */
(PID.TID 0000.0001)                 3.488000000000000E+01,      /* K = 12 */
(PID.TID 0000.0001)                 3.490000000000000E+01,      /* K = 13 */
(PID.TID 0000.0001)                 3.491000000000000E+01,      /* K = 14 */
(PID.TID 0000.0001)                 3.493000000000000E+01,      /* K = 15 */
(PID.TID 0000.0001)                 3.495000000000000E+01,      /* K = 16 */
(PID.TID 0000.0001)                 3.496000000000000E+01,      /* K = 17 */
(PID.TID 0000.0001)                 3.498000000000000E+01,      /* K = 18 */
(PID.TID 0000.0001)                 3.499000000000000E+01,      /* K = 19 */
(PID.TID 0000.0001)                 3.500000000000000E+01,      /* K = 20 */
(PID.TID 0000.0001)                 3.501000000000000E+01,      /* K = 21 */
(PID.TID 0000.0001)                 3.502000000000000E+01,      /* K = 22 */
(PID.TID 0000.0001)                 3.503000000000000E+01,      /* K = 23 */
(PID.TID 0000.0001)                 3.504000000000000E+01,      /* K = 24 */
(PID.TID 0000.0001)                 3.505000000000000E+01,      /* K = 25 */
(PID.TID 0000.0001)                 3.506000000000000E+01,      /* K = 26 */
(PID.TID 0000.0001)     7 @  3.507000000000000E+01,             /* K = 27: 33 */
(PID.TID 0000.0001)                 3.506000000000000E+01,      /* K = 34 */
(PID.TID 0000.0001)                 3.505000000000000E+01,      /* K = 35 */
(PID.TID 0000.0001)                 3.504000000000000E+01,      /* K = 36 */
(PID.TID 0000.0001)                 3.503000000000000E+01,      /* K = 37 */
(PID.TID 0000.0001)                 3.502000000000000E+01,      /* K = 38 */
(PID.TID 0000.0001)                 3.501000000000000E+01,      /* K = 39 */
(PID.TID 0000.0001)                 3.499000000000000E+01,      /* K = 40 */
(PID.TID 0000.0001)                 3.497000000000000E+01,      /* K = 41 */
(PID.TID 0000.0001)                 3.495000000000000E+01,      /* K = 42 */
(PID.TID 0000.0001)                 3.492000000000000E+01,      /* K = 43 */
(PID.TID 0000.0001)                 3.490000000000000E+01,      /* K = 44 */
(PID.TID 0000.0001)                 3.487000000000000E+01,      /* K = 45 */
(PID.TID 0000.0001)                 3.484000000000000E+01,      /* K = 46 */
(PID.TID 0000.0001)                 3.481000000000000E+01,      /* K = 47 */
(PID.TID 0000.0001)                 3.478000000000000E+01,      /* K = 48 */
(PID.TID 0000.0001)                 3.475000000000000E+01,      /* K = 49 */
(PID.TID 0000.0001)                 3.472000000000000E+01,      /* K = 50 */
(PID.TID 0000.0001)                 3.469000000000000E+01,      /* K = 51 */
(PID.TID 0000.0001)                 3.467000000000000E+01,      /* K = 52 */
(PID.TID 0000.0001)                 3.465000000000000E+01,      /* K = 53 */
(PID.TID 0000.0001)                 3.462000000000000E+01,      /* K = 54 */
(PID.TID 0000.0001)                 3.461000000000000E+01,      /* K = 55 */
(PID.TID 0000.0001)                 3.460000000000000E+01,      /* K = 56 */
(PID.TID 0000.0001)     2 @  3.459000000000000E+01,             /* K = 57: 58 */
(PID.TID 0000.0001)                 3.458000000000000E+01,      /* K = 59 */
(PID.TID 0000.0001)     2 @  3.459000000000000E+01,             /* K = 60: 61 */
(PID.TID 0000.0001)     2 @  3.460000000000000E+01,             /* K = 62: 63 */
(PID.TID 0000.0001)                 3.461000000000000E+01,      /* K = 64 */
(PID.TID 0000.0001)                 3.462000000000000E+01,      /* K = 65 */
(PID.TID 0000.0001)                 3.463000000000000E+01,      /* K = 66 */
(PID.TID 0000.0001)                 3.464000000000000E+01,      /* K = 67 */
(PID.TID 0000.0001)                 3.465000000000000E+01,      /* K = 68 */
(PID.TID 0000.0001)                 3.466000000000000E+01,      /* K = 69 */
(PID.TID 0000.0001)     2 @  3.467000000000000E+01,             /* K = 70: 71 */
(PID.TID 0000.0001)                 3.468000000000000E+01,      /* K = 72 */
(PID.TID 0000.0001)                 3.469000000000000E+01,      /* K = 73 */
(PID.TID 0000.0001)                 3.470000000000000E+01,      /* K = 74 */
(PID.TID 0000.0001)     2 @  3.471000000000000E+01,             /* K = 75: 76 */
(PID.TID 0000.0001)     2 @  3.472000000000000E+01,             /* K = 77: 78 */
(PID.TID 0000.0001)     3 @  3.473000000000000E+01,             /* K = 79: 81 */
(PID.TID 0000.0001)     4 @  3.474000000000000E+01,             /* K = 82: 85 */
(PID.TID 0000.0001)                 3.475000000000000E+01,      /* K = 86 */
(PID.TID 0000.0001)     8 @  3.474000000000000E+01,             /* K = 87: 94 */
(PID.TID 0000.0001)     6 @  3.473000000000000E+01              /* K = 95:100 */
(PID.TID 0000.0001)     ;
(PID.TID 0000.0001) useStrainTensionVisc= /* Use StrainTension Form of Viscous Operator */
(PID.TID 0000.0001)                   F
(PID.TID 0000.0001)     ;
(PID.TID 0000.0001) useVariableVisc = /* Use variable horizontal viscosity */
(PID.TID 0000.0001)                   T
(PID.TID 0000.0001)     ;
(PID.TID 0000.0001) useHarmonicVisc = /* Use harmonic horizontal viscosity */
(PID.TID 0000.0001)                   F
(PID.TID 0000.0001)     ;
(PID.TID 0000.0001) useBiharmonicVisc= /* Use biharmonic horiz.  viscosity */
(PID.TID 0000.0001)                   T
(PID.TID 0000.0001)     ;
(PID.TID 0000.0001) useSmag3D = /* Use isotropic 3-D Smagorinsky viscosity */
(PID.TID 0000.0001)                   F
(PID.TID 0000.0001)     ;
(PID.TID 0000.0001) viscAh  =   /* Lateral harmonic viscosity ( m^2/s ) */
(PID.TID 0000.0001)                 0.000000000000000E+00
(PID.TID 0000.0001)     ;
(PID.TID 0000.0001) viscAhMax = /* Maximum lateral harmonic viscosity ( m^2/s ) */
(PID.TID 0000.0001)                 1.000000000000000E+21
(PID.TID 0000.0001)     ;
(PID.TID 0000.0001) viscAhGrid = /* Grid dependent lateral harmonic viscosity ( non-dim. ) */
(PID.TID 0000.0001)                 0.000000000000000E+00
(PID.TID 0000.0001)     ;
(PID.TID 0000.0001) useFullLeith = /* Use Full Form of Leith Viscosity on/off flag*/
(PID.TID 0000.0001)                   F
(PID.TID 0000.0001)     ;
(PID.TID 0000.0001) useAreaViscLength = /* Use area for visc length instead of geom. mean*/
(PID.TID 0000.0001)                   T
(PID.TID 0000.0001)     ;
(PID.TID 0000.0001) viscC2leith = /* Leith harmonic visc. factor (on grad(vort),non-dim.) */
(PID.TID 0000.0001)                 0.000000000000000E+00
(PID.TID 0000.0001)     ;
(PID.TID 0000.0001) viscC2leithD = /* Leith harmonic viscosity factor (on grad(div),non-dim.)*/
(PID.TID 0000.0001)                 0.000000000000000E+00
(PID.TID 0000.0001)     ;
(PID.TID 0000.0001) viscC2smag = /* Smagorinsky harmonic viscosity factor (non-dim.) */
(PID.TID 0000.0001)                 0.000000000000000E+00
(PID.TID 0000.0001)     ;
(PID.TID 0000.0001) viscA4  =   /* Lateral biharmonic viscosity ( m^4/s ) */
(PID.TID 0000.0001)                 0.000000000000000E+00
(PID.TID 0000.0001)     ;
(PID.TID 0000.0001) viscA4Max = /* Maximum biharmonic viscosity ( m^2/s ) */
(PID.TID 0000.0001)                 1.000000000000000E+21
(PID.TID 0000.0001)     ;
(PID.TID 0000.0001) viscA4Grid = /* Grid dependent biharmonic viscosity ( non-dim. ) */
(PID.TID 0000.0001)                 0.000000000000000E+00
(PID.TID 0000.0001)     ;
(PID.TID 0000.0001) viscC4leith = /* Leith biharm viscosity factor (on grad(vort), non-dim.)*/
(PID.TID 0000.0001)                 2.000000000000000E+00
(PID.TID 0000.0001)     ;
(PID.TID 0000.0001) viscC4leithD = /* Leith biharm viscosity factor (on grad(div), non-dim.) */
(PID.TID 0000.0001)                 2.000000000000000E+00
(PID.TID 0000.0001)     ;
(PID.TID 0000.0001) viscC4Smag = /* Smagorinsky biharm viscosity factor (non-dim) */
(PID.TID 0000.0001)                 0.000000000000000E+00
(PID.TID 0000.0001)     ;
(PID.TID 0000.0001) no_slip_sides =  /* Viscous BCs: No-slip sides */
(PID.TID 0000.0001)                   T
(PID.TID 0000.0001)     ;
(PID.TID 0000.0001) sideDragFactor = /* side-drag scaling factor (non-dim) */
(PID.TID 0000.0001)                 2.000000000000000E+00
(PID.TID 0000.0001)     ;
(PID.TID 0000.0001) viscArNr = /* vertical profile of vertical viscosity ( m^2/s )*/
(PID.TID 0000.0001)   100 @  5.000000000000000E-04              /* K =  1:100 */
(PID.TID 0000.0001)     ;
(PID.TID 0000.0001) no_slip_bottom =  /* Viscous BCs: No-slip bottom */
(PID.TID 0000.0001)                   T
(PID.TID 0000.0001)     ;
(PID.TID 0000.0001) bottomVisc_pCell = /* Partial-cell in bottom Visc. BC */
(PID.TID 0000.0001)                   F
(PID.TID 0000.0001)     ;
(PID.TID 0000.0001) bottomDragLinear = /* linear bottom-drag coefficient ( m/s ) */
(PID.TID 0000.0001)                 0.000000000000000E+00
(PID.TID 0000.0001)     ;
(PID.TID 0000.0001) bottomDragQuadratic = /* quadratic bottom-drag coefficient (-) */
(PID.TID 0000.0001)                 2.000000000000000E-03
(PID.TID 0000.0001)     ;
(PID.TID 0000.0001) selectBotDragQuadr = /* select quadratic bottom drag options */
(PID.TID 0000.0001)                       0
(PID.TID 0000.0001)     ;
(PID.TID 0000.0001) diffKhT =   /* Laplacian diffusion of heat laterally ( m^2/s ) */
(PID.TID 0000.0001)                 0.000000000000000E+00
(PID.TID 0000.0001)     ;
(PID.TID 0000.0001) diffK4T =   /* Biharmonic diffusion of heat laterally ( m^4/s ) */
(PID.TID 0000.0001)                 0.000000000000000E+00
(PID.TID 0000.0001)     ;
(PID.TID 0000.0001) diffKhS =   /* Laplacian diffusion of salt laterally ( m^2/s ) */
(PID.TID 0000.0001)                 0.000000000000000E+00
(PID.TID 0000.0001)     ;
(PID.TID 0000.0001) diffK4S =   /* Biharmonic diffusion of salt laterally ( m^4/s ) */
(PID.TID 0000.0001)                 0.000000000000000E+00
(PID.TID 0000.0001)     ;
(PID.TID 0000.0001) diffKrNrT = /* vertical profile of vertical diffusion of Temp ( m^2/s )*/
(PID.TID 0000.0001)   100 @  1.000000000000000E-05              /* K =  1:100 */
(PID.TID 0000.0001)     ;
(PID.TID 0000.0001) diffKrNrS = /* vertical profile of vertical diffusion of Salt ( m^2/s )*/
(PID.TID 0000.0001)   100 @  1.000000000000000E-05              /* K =  1:100 */
(PID.TID 0000.0001)     ;
(PID.TID 0000.0001) diffKrBL79surf = /* Surface diffusion for Bryan and Lewis 79 ( m^2/s ) */
(PID.TID 0000.0001)                 0.000000000000000E+00
(PID.TID 0000.0001)     ;
(PID.TID 0000.0001) diffKrBL79deep = /* Deep diffusion for Bryan and Lewis 1979 ( m^2/s ) */
(PID.TID 0000.0001)                 0.000000000000000E+00
(PID.TID 0000.0001)     ;
(PID.TID 0000.0001) diffKrBL79scl = /* Depth scale for Bryan and Lewis 1979 ( m ) */
(PID.TID 0000.0001)                 2.000000000000000E+02
(PID.TID 0000.0001)     ;
(PID.TID 0000.0001) diffKrBL79Ho = /* Turning depth for Bryan and Lewis 1979 ( m ) */
(PID.TID 0000.0001)                -2.000000000000000E+03
(PID.TID 0000.0001)     ;
(PID.TID 0000.0001) ivdc_kappa = /* Implicit Vertical Diffusivity for Convection ( m^2/s) */
(PID.TID 0000.0001)                 0.000000000000000E+00
(PID.TID 0000.0001)     ;
(PID.TID 0000.0001) hMixCriteria=  /* Criteria for mixed-layer diagnostic */
(PID.TID 0000.0001)                -8.000000000000000E-01
(PID.TID 0000.0001)     ;
(PID.TID 0000.0001) dRhoSmall =  /* Parameter for mixed-layer diagnostic */
(PID.TID 0000.0001)                 1.000000000000000E-06
(PID.TID 0000.0001)     ;
(PID.TID 0000.0001) hMixSmooth=  /* Smoothing parameter for mixed-layer diagnostic */
(PID.TID 0000.0001)                 0.000000000000000E+00
(PID.TID 0000.0001)     ;
(PID.TID 0000.0001) eosType =  /* Type of Equation of State */
(PID.TID 0000.0001)               'JMD95Z'
(PID.TID 0000.0001)     ;
(PID.TID 0000.0001) selectP_inEOS_Zc = /* select pressure to use in EOS (0,1,2,3) */
(PID.TID 0000.0001)                       0
(PID.TID 0000.0001)     0= -g*rhoConst*z ; 1= pRef (from tRef,sRef); 2= Hyd P ; 3= Hyd+NH P
(PID.TID 0000.0001)     ;
(PID.TID 0000.0001) HeatCapacity_Cp =  /* Specific heat capacity ( J/kg/K ) */
(PID.TID 0000.0001)                 3.994000000000000E+03
(PID.TID 0000.0001)     ;
(PID.TID 0000.0001) celsius2K = /* 0 degree Celsius converted to Kelvin ( K ) */
(PID.TID 0000.0001)                 2.731500000000000E+02
(PID.TID 0000.0001)     ;
(PID.TID 0000.0001) rhoConst  = /* Reference density (Boussinesq)  ( kg/m^3 ) */
(PID.TID 0000.0001)                 1.029000000000000E+03
(PID.TID 0000.0001)     ;
(PID.TID 0000.0001) rhoFacC = /* normalized Reference density @ cell-Center (-) */
(PID.TID 0000.0001)   100 @  1.000000000000000E+00              /* K =  1:100 */
(PID.TID 0000.0001)     ;
(PID.TID 0000.0001) rhoFacF = /* normalized Reference density @ W-Interface (-) */
(PID.TID 0000.0001)   101 @  1.000000000000000E+00              /* K =  1:101 */
(PID.TID 0000.0001)     ;
(PID.TID 0000.0001) rhoConstFresh = /* Fresh-water reference density ( kg/m^3 ) */
(PID.TID 0000.0001)                 1.000000000000000E+03
(PID.TID 0000.0001)     ;
(PID.TID 0000.0001) gravity =   /* Gravitational acceleration ( m/s^2 ) */
(PID.TID 0000.0001)                 9.810000000000000E+00
(PID.TID 0000.0001)     ;
(PID.TID 0000.0001) gBaro =   /* Barotropic gravity ( m/s^2 ) */
(PID.TID 0000.0001)                 9.810000000000000E+00
(PID.TID 0000.0001)     ;
(PID.TID 0000.0001) gravFacC = /* gravity factor (vs surf.) @ cell-Center (-) */
(PID.TID 0000.0001)   100 @  1.000000000000000E+00              /* K =  1:100 */
(PID.TID 0000.0001)     ;
(PID.TID 0000.0001) gravFacF = /* gravity factor (vs surf.) @ W-Interface (-) */
(PID.TID 0000.0001)   101 @  1.000000000000000E+00              /* K =  1:101 */
(PID.TID 0000.0001)     ;
(PID.TID 0000.0001) rotationPeriod =   /* Rotation Period ( s ) */
(PID.TID 0000.0001)                 8.616400000000000E+04
(PID.TID 0000.0001)     ;
(PID.TID 0000.0001) omega =   /* Angular velocity ( rad/s ) */
(PID.TID 0000.0001)                 7.292123516990375E-05
(PID.TID 0000.0001)     ;
(PID.TID 0000.0001) f0 =   /* Reference coriolis parameter ( 1/s ) */
(PID.TID 0000.0001)                 1.000000000000000E-04
(PID.TID 0000.0001)     ;
(PID.TID 0000.0001) beta =   /* Beta ( 1/(m.s) ) */
(PID.TID 0000.0001)                 9.999999999999999E-12
(PID.TID 0000.0001)     ;
(PID.TID 0000.0001) fPrime =   /* Second coriolis parameter ( 1/s ) */
(PID.TID 0000.0001)                 0.000000000000000E+00
(PID.TID 0000.0001)     ;
(PID.TID 0000.0001) rigidLid =   /* Rigid lid on/off flag */
(PID.TID 0000.0001)                   F
(PID.TID 0000.0001)     ;
(PID.TID 0000.0001) implicitFreeSurface =   /* Implicit free surface on/off flag */
(PID.TID 0000.0001)                   T
(PID.TID 0000.0001)     ;
(PID.TID 0000.0001) freeSurfFac =   /* Implicit free surface factor */
(PID.TID 0000.0001)                 1.000000000000000E+00
(PID.TID 0000.0001)     ;
(PID.TID 0000.0001) implicSurfPress =  /* Surface Pressure implicit factor (0-1)*/
(PID.TID 0000.0001)                 1.000000000000000E+00
(PID.TID 0000.0001)     ;
(PID.TID 0000.0001) implicDiv2DFlow =  /* Barot. Flow Div. implicit factor (0-1)*/
(PID.TID 0000.0001)                 1.000000000000000E+00
(PID.TID 0000.0001)     ;
(PID.TID 0000.0001) uniformLin_PhiSurf = /* use uniform Bo_surf on/off flag*/
(PID.TID 0000.0001)                   T
(PID.TID 0000.0001)     ;
(PID.TID 0000.0001) uniformFreeSurfLev = /* free-surface level-index is uniform */
(PID.TID 0000.0001)                   T
(PID.TID 0000.0001)     ;
(PID.TID 0000.0001) hFacMin =   /* minimum partial cell factor (hFac) */
(PID.TID 0000.0001)                 2.000000000000000E-01
(PID.TID 0000.0001)     ;
(PID.TID 0000.0001) hFacMinDr = /* minimum partial cell thickness ( m) */
(PID.TID 0000.0001)                 5.000000000000000E+00
(PID.TID 0000.0001)     ;
(PID.TID 0000.0001) exactConserv =  /* Exact Volume Conservation on/off flag*/
(PID.TID 0000.0001)                   T
(PID.TID 0000.0001)     ;
(PID.TID 0000.0001) linFSConserveTr = /* Tracer correction for Lin Free Surface on/off flag*/
(PID.TID 0000.0001)                   F
(PID.TID 0000.0001)     ;
(PID.TID 0000.0001) nonlinFreeSurf = /* Non-linear Free Surf. options (-1,0,1,2,3)*/
(PID.TID 0000.0001)                       0
(PID.TID 0000.0001)      -1,0= Off ; 1,2,3= On, 2=+rescale gU,gV, 3=+update cg2d solv.
(PID.TID 0000.0001)     ;
(PID.TID 0000.0001) hFacInf =   /* lower threshold for hFac (nonlinFreeSurf only)*/
(PID.TID 0000.0001)                 2.000000000000000E-01
(PID.TID 0000.0001)     ;
(PID.TID 0000.0001) hFacSup =   /* upper threshold for hFac (nonlinFreeSurf only)*/
(PID.TID 0000.0001)                 2.000000000000000E+00
(PID.TID 0000.0001)     ;
(PID.TID 0000.0001) select_rStar = /* r* Vertical coord. options (=0 r coord.; >0 uses r*)*/
(PID.TID 0000.0001)                       0
(PID.TID 0000.0001)     ;
(PID.TID 0000.0001) useRealFreshWaterFlux = /* Real Fresh Water Flux on/off flag*/
(PID.TID 0000.0001)                   F
(PID.TID 0000.0001)     ;
(PID.TID 0000.0001) temp_EvPrRn = /* Temp. of Evap/Prec/R (UNSET=use local T)(oC)*/
(PID.TID 0000.0001)                 0.000000000000000E+00
(PID.TID 0000.0001)     ;
(PID.TID 0000.0001) salt_EvPrRn = /* Salin. of Evap/Prec/R (UNSET=use local S)(psu)*/
(PID.TID 0000.0001)                 0.000000000000000E+00
(PID.TID 0000.0001)     ;
(PID.TID 0000.0001) selectAddFluid = /* option for mass source/sink of fluid (=0: off) */
(PID.TID 0000.0001)                       0
(PID.TID 0000.0001)     ;
(PID.TID 0000.0001) temp_addMass = /* Temp. of addMass array (UNSET=use local T)(oC)*/
(PID.TID 0000.0001)                 0.000000000000000E+00
(PID.TID 0000.0001)     ;
(PID.TID 0000.0001) salt_addMass = /* Salin. of addMass array (UNSET=use local S)(psu)*/
(PID.TID 0000.0001)                 0.000000000000000E+00
(PID.TID 0000.0001)     ;
(PID.TID 0000.0001) convertFW2Salt = /* convert F.W. Flux to Salt Flux (-1=use local S)(psu)*/
(PID.TID 0000.0001)                -1.000000000000000E+00
(PID.TID 0000.0001)     ;
(PID.TID 0000.0001) use3Dsolver = /* use 3-D pressure solver on/off flag */
(PID.TID 0000.0001)                   F
(PID.TID 0000.0001)     ;
(PID.TID 0000.0001) nonHydrostatic =  /* Non-Hydrostatic on/off flag */
(PID.TID 0000.0001)                   F
(PID.TID 0000.0001)     ;
(PID.TID 0000.0001) nh_Am2 = /* Non-Hydrostatic terms scaling factor */
(PID.TID 0000.0001)                 1.000000000000000E+00
(PID.TID 0000.0001)     ;
(PID.TID 0000.0001) implicitNHPress = /* Non-Hyd Pressure implicit factor (0-1)*/
(PID.TID 0000.0001)                 1.000000000000000E+00
(PID.TID 0000.0001)     ;
(PID.TID 0000.0001) selectNHfreeSurf = /* Non-Hyd (free-)Surface option */
(PID.TID 0000.0001)                       0
(PID.TID 0000.0001)     ;
(PID.TID 0000.0001) quasiHydrostatic = /* Quasi-Hydrostatic on/off flag */
(PID.TID 0000.0001)                   F
(PID.TID 0000.0001)     ;
(PID.TID 0000.0001) calc_wVelocity = /* vertical velocity calculation on/off flag */
(PID.TID 0000.0001)                   T
(PID.TID 0000.0001)     ;
(PID.TID 0000.0001) momStepping =  /* Momentum equation on/off flag */
(PID.TID 0000.0001)                   T
(PID.TID 0000.0001)     ;
(PID.TID 0000.0001) vectorInvariantMomentum= /* Vector-Invariant Momentum on/off */
(PID.TID 0000.0001)                   T
(PID.TID 0000.0001)     ;
(PID.TID 0000.0001) momAdvection =  /* Momentum advection on/off flag */
(PID.TID 0000.0001)                   T
(PID.TID 0000.0001)     ;
(PID.TID 0000.0001) momViscosity =  /* Momentum viscosity on/off flag */
(PID.TID 0000.0001)                   T
(PID.TID 0000.0001)     ;
(PID.TID 0000.0001) momImplVertAdv= /* Momentum implicit vert. advection on/off*/
(PID.TID 0000.0001)                   F
(PID.TID 0000.0001)     ;
(PID.TID 0000.0001) implicitViscosity = /* Implicit viscosity on/off flag */
(PID.TID 0000.0001)                   T
(PID.TID 0000.0001)     ;
(PID.TID 0000.0001) selectImplicitDrag= /* Implicit bot Drag options (0,1,2)*/
(PID.TID 0000.0001)                       0
(PID.TID 0000.0001)     0= Expl. ; 1= Impl. on provis. Vel ; 2= Fully Impl (with surf.P)
(PID.TID 0000.0001)     ;
(PID.TID 0000.0001) metricTerms =  /* metric-Terms on/off flag */
(PID.TID 0000.0001)                   F
(PID.TID 0000.0001)     ;
(PID.TID 0000.0001) useNHMTerms = /* Non-Hydrostatic Metric-Terms on/off */
(PID.TID 0000.0001)                   F
(PID.TID 0000.0001)     ;
(PID.TID 0000.0001) selectCoriMap = /* Coriolis Map options (0,1,2,3)*/
(PID.TID 0000.0001)                       2
(PID.TID 0000.0001)     0= f-Plane ; 1= Beta-Plane ; 2= Spherical ; 3= read from file
(PID.TID 0000.0001)     ;
(PID.TID 0000.0001) use3dCoriolis = /* 3-D Coriolis on/off flag */
(PID.TID 0000.0001)                   F
(PID.TID 0000.0001)     ;
(PID.TID 0000.0001) useCoriolis =  /* Coriolis on/off flag */
(PID.TID 0000.0001)                   T
(PID.TID 0000.0001)     ;
(PID.TID 0000.0001) useCDscheme =  /* CD scheme on/off flag */
(PID.TID 0000.0001)                   F
(PID.TID 0000.0001)     ;
(PID.TID 0000.0001) useEnergyConservingCoriolis= /* Flx-Form Coriolis scheme flag */
(PID.TID 0000.0001)                   F
(PID.TID 0000.0001)     ;
(PID.TID 0000.0001) useJamartWetPoints= /* Coriolis WetPoints method flag */
(PID.TID 0000.0001)                   F
(PID.TID 0000.0001)     ;
(PID.TID 0000.0001) useJamartMomAdv= /* V.I Non-linear terms Jamart flag */
(PID.TID 0000.0001)                   F
(PID.TID 0000.0001)     ;
(PID.TID 0000.0001) useAbsVorticity= /* V.I Works with f+zeta in Coriolis */
(PID.TID 0000.0001)                   F
(PID.TID 0000.0001)     ;
(PID.TID 0000.0001) selectVortScheme= /* V.I Scheme selector for Vorticity-Term */
(PID.TID 0000.0001)                       0
(PID.TID 0000.0001)    = 0 : enstrophy (Shallow-Water Eq.) conserving scheme by Sadourny, JAS 75
(PID.TID 0000.0001)    = 1 : same as 0 with modified hFac
(PID.TID 0000.0001)    = 2 : energy conserving scheme (used by Sadourny in JAS 75 paper)
(PID.TID 0000.0001)    = 3 : energy (general) and enstrophy (2D, nonDiv.) conserving scheme
(PID.TID 0000.0001)          from Sadourny (Burridge & Haseler, ECMWF Rep.4, 1977)
(PID.TID 0000.0001)     ;
(PID.TID 0000.0001) upwindVorticity= /* V.I Upwind bias vorticity flag */
(PID.TID 0000.0001)                   F
(PID.TID 0000.0001)     ;
(PID.TID 0000.0001) highOrderVorticity= /* V.I High order vort. advect. flag */
(PID.TID 0000.0001)                   T
(PID.TID 0000.0001)     ;
(PID.TID 0000.0001) upwindShear= /* V.I Upwind vertical Shear advection flag */
(PID.TID 0000.0001)                   F
(PID.TID 0000.0001)     ;
(PID.TID 0000.0001) selectKEscheme= /* V.I Kinetic Energy scheme selector */
(PID.TID 0000.0001)                       0
(PID.TID 0000.0001)     ;
(PID.TID 0000.0001) momForcing =  /* Momentum forcing on/off flag */
(PID.TID 0000.0001)                   T
(PID.TID 0000.0001)     ;
(PID.TID 0000.0001) momTidalForcing = /* Momentum Tidal forcing on/off flag */
(PID.TID 0000.0001)                   T
(PID.TID 0000.0001)     ;
(PID.TID 0000.0001) momPressureForcing =  /* Momentum pressure term on/off flag */
(PID.TID 0000.0001)                   T
(PID.TID 0000.0001)     ;
(PID.TID 0000.0001) implicitIntGravWave= /* Implicit Internal Gravity Wave flag */
(PID.TID 0000.0001)                   F
(PID.TID 0000.0001)     ;
(PID.TID 0000.0001) staggerTimeStep =    /* Stagger time stepping on/off flag */
(PID.TID 0000.0001)                   T
(PID.TID 0000.0001)     ;
(PID.TID 0000.0001) doResetHFactors = /* reset thickness factors @ each time-step */
(PID.TID 0000.0001)                   F
(PID.TID 0000.0001)     ;
(PID.TID 0000.0001) multiDimAdvection =  /* enable/disable Multi-Dim Advection */
(PID.TID 0000.0001)                   T
(PID.TID 0000.0001)     ;
(PID.TID 0000.0001) useMultiDimAdvec =   /* Multi-Dim Advection is/is-not used */
(PID.TID 0000.0001)                   T
(PID.TID 0000.0001)     ;
(PID.TID 0000.0001) implicitDiffusion = /* Implicit Diffusion on/off flag */
(PID.TID 0000.0001)                   T
(PID.TID 0000.0001)     ;
(PID.TID 0000.0001) tempStepping =  /* Temperature equation on/off flag */
(PID.TID 0000.0001)                   T
(PID.TID 0000.0001)     ;
(PID.TID 0000.0001) tempAdvection = /* Temperature advection on/off flag */
(PID.TID 0000.0001)                   T
(PID.TID 0000.0001)     ;
(PID.TID 0000.0001) tempImplVertAdv = /* Temp. implicit vert. advection on/off */
(PID.TID 0000.0001)                   F
(PID.TID 0000.0001)     ;
(PID.TID 0000.0001) tempForcing  =  /* Temperature forcing on/off flag */
(PID.TID 0000.0001)                   T
(PID.TID 0000.0001)     ;
(PID.TID 0000.0001) doThetaClimRelax = /* apply SST relaxation on/off flag */
(PID.TID 0000.0001)                   F
(PID.TID 0000.0001)     ;
(PID.TID 0000.0001) tempIsActiveTr = /* Temp. is a dynamically Active Tracer */
(PID.TID 0000.0001)                   T
(PID.TID 0000.0001)     ;
(PID.TID 0000.0001) saltStepping =  /* Salinity equation on/off flag */
(PID.TID 0000.0001)                   T
(PID.TID 0000.0001)     ;
(PID.TID 0000.0001) saltAdvection = /* Salinity advection on/off flag */
(PID.TID 0000.0001)                   T
(PID.TID 0000.0001)     ;
(PID.TID 0000.0001) saltImplVertAdv = /* Sali. implicit vert. advection on/off */
(PID.TID 0000.0001)                   F
(PID.TID 0000.0001)     ;
(PID.TID 0000.0001) saltForcing  =  /* Salinity forcing on/off flag */
(PID.TID 0000.0001)                   T
(PID.TID 0000.0001)     ;
(PID.TID 0000.0001) doSaltClimRelax = /* apply SSS relaxation on/off flag */
(PID.TID 0000.0001)                   F
(PID.TID 0000.0001)     ;
(PID.TID 0000.0001) saltIsActiveTr = /* Salt  is a dynamically Active Tracer */
(PID.TID 0000.0001)                   T
(PID.TID 0000.0001)     ;
(PID.TID 0000.0001)  readBinaryPrec = /* Precision used for reading binary files */
(PID.TID 0000.0001)                      32
(PID.TID 0000.0001)     ;
(PID.TID 0000.0001) writeBinaryPrec = /* Precision used for writing binary files */
(PID.TID 0000.0001)                      32
(PID.TID 0000.0001)     ;
(PID.TID 0000.0001)  rwSuffixType =   /* select format of mds file suffix */
(PID.TID 0000.0001)                       0
(PID.TID 0000.0001)    = 0 : myIter (I10.10) ;   = 1 : 100*myTime (100th sec) ;
(PID.TID 0000.0001)    = 2 : myTime (seconds);   = 3 : myTime/360 (10th of hr);
(PID.TID 0000.0001)    = 4 : myTime/3600 (hours)
(PID.TID 0000.0001)     ;
(PID.TID 0000.0001)  globalFiles = /* write "global" (=not per tile) files */
(PID.TID 0000.0001)                   T
(PID.TID 0000.0001)     ;
(PID.TID 0000.0001)  useSingleCpuIO = /* only master MPI process does I/O */
(PID.TID 0000.0001)                   T
(PID.TID 0000.0001)     ;
(PID.TID 0000.0001)  useSingleCpuInput = /* only master process reads input */
(PID.TID 0000.0001)                   T
(PID.TID 0000.0001)     ;
(PID.TID 0000.0001) /* debLev[*]  : level of debug & auxiliary message printing */
(PID.TID 0000.0001) debLevZero =  0 ; /* level of disabled aux. msg printing */
(PID.TID 0000.0001)    debLevA =  1 ; /* level of minimum  aux. msg printing */
(PID.TID 0000.0001)    debLevB =  2 ; /* level of low aux. print (report read-file opening)*/
(PID.TID 0000.0001)    debLevC =  3 ; /* level of moderate debug prt (most pkgs debug msg) */
(PID.TID 0000.0001)    debLevD =  4 ; /* level of enhanced debug prt (add DEBUG_STATS prt) */
(PID.TID 0000.0001)    debLevE =  5 ; /* level of extensive debug printing */
(PID.TID 0000.0001) debugLevel =  /* select debug printing level */
(PID.TID 0000.0001)                       2
(PID.TID 0000.0001)     ;
(PID.TID 0000.0001)  plotLevel =  /* select PLOT_FIELD printing level */
(PID.TID 0000.0001)                       2
(PID.TID 0000.0001)     ;
(PID.TID 0000.0001) //
(PID.TID 0000.0001) // Elliptic solver(s) paramters ( PARM02 in namelist )
(PID.TID 0000.0001) //
(PID.TID 0000.0001) cg2dMaxIters =   /* Upper limit on 2d con. grad iterations  */
(PID.TID 0000.0001)                    1000
(PID.TID 0000.0001)     ;
(PID.TID 0000.0001) cg2dChkResFreq =   /* 2d con. grad convergence test frequency */
(PID.TID 0000.0001)                       1
(PID.TID 0000.0001)     ;
(PID.TID 0000.0001) cg2dUseMinResSol= /* use cg2d last-iter(=0) / min-resid.(=1) solution */
(PID.TID 0000.0001)                       0
(PID.TID 0000.0001)     ;
(PID.TID 0000.0001) cg2dTargetResidual =   /* 2d con. grad target residual  */
(PID.TID 0000.0001)                 1.000000000000000E-07
(PID.TID 0000.0001)     ;
(PID.TID 0000.0001) cg2dTargetResWunit =   /* CG2d target residual [W units] */
(PID.TID 0000.0001)                 1.000000000000000E-18
(PID.TID 0000.0001)     ;
(PID.TID 0000.0001) cg2dPreCondFreq =   /* Freq. for updating cg2d preconditioner */
(PID.TID 0000.0001)                       1
(PID.TID 0000.0001)     ;
(PID.TID 0000.0001) useSRCGSolver =  /* use single reduction CG solver(s) */
(PID.TID 0000.0001)                   F
(PID.TID 0000.0001)     ;
(PID.TID 0000.0001) printResidualFreq = /* Freq. for printing CG residual */
(PID.TID 0000.0001)                       0
(PID.TID 0000.0001)     ;
(PID.TID 0000.0001) //
(PID.TID 0000.0001) // Time stepping paramters ( PARM03 in namelist )
(PID.TID 0000.0001) //
(PID.TID 0000.0001) deltaTMom =   /* Momentum equation timestep ( s ) */
(PID.TID 0000.0001)                 2.400000000000000E+02
(PID.TID 0000.0001)     ;
(PID.TID 0000.0001) deltaTFreeSurf = /* FreeSurface equation timestep ( s ) */
(PID.TID 0000.0001)                 2.400000000000000E+02
(PID.TID 0000.0001)     ;
(PID.TID 0000.0001) dTtracerLev =  /* Tracer equation timestep ( s ) */
(PID.TID 0000.0001)   100 @  2.400000000000000E+02              /* K =  1:100 */
(PID.TID 0000.0001)     ;
(PID.TID 0000.0001) deltaTClock  =   /* Model clock timestep ( s ) */
(PID.TID 0000.0001)                 2.400000000000000E+02
(PID.TID 0000.0001)     ;
(PID.TID 0000.0001) cAdjFreq =   /* Convective adjustment interval ( s ) */
(PID.TID 0000.0001)                 0.000000000000000E+00
(PID.TID 0000.0001)     ;
(PID.TID 0000.0001) momForcingOutAB = /* =1: take Momentum Forcing out of Adams-Bash. stepping */
(PID.TID 0000.0001)                       1
(PID.TID 0000.0001)     ;
(PID.TID 0000.0001) tracForcingOutAB = /* =1: take T,S,pTr Forcing out of Adams-Bash. stepping */
(PID.TID 0000.0001)                       1
(PID.TID 0000.0001)     ;
(PID.TID 0000.0001) momDissip_In_AB = /* put Dissipation Tendency in Adams-Bash. stepping */
(PID.TID 0000.0001)                   F
(PID.TID 0000.0001)     ;
(PID.TID 0000.0001) doAB_onGtGs = /* apply AB on Tendencies (rather than on T,S)*/
(PID.TID 0000.0001)                   T
(PID.TID 0000.0001)     ;
(PID.TID 0000.0001) abEps =   /* Adams-Bashforth-2 stabilizing weight */
(PID.TID 0000.0001)                 1.000000000000000E-01
(PID.TID 0000.0001)     ;
(PID.TID 0000.0001) applyExchUV_early = /* Apply EXCH to U,V earlier in time-step */
(PID.TID 0000.0001)                   F
(PID.TID 0000.0001)     ;
(PID.TID 0000.0001) pickupStrictlyMatch= /* stop if pickup do not strictly match */
(PID.TID 0000.0001)                   F
(PID.TID 0000.0001)     ;
(PID.TID 0000.0001) nIter0   =   /* Run starting timestep number */
(PID.TID 0000.0001)                       0
(PID.TID 0000.0001)     ;
(PID.TID 0000.0001) nTimeSteps = /* Number of timesteps */
(PID.TID 0000.0001)                      15
(PID.TID 0000.0001)     ;
(PID.TID 0000.0001) nEndIter =   /* Run ending timestep number */
(PID.TID 0000.0001)                      15
(PID.TID 0000.0001)     ;
(PID.TID 0000.0001) baseTime =   /* Model base time ( s ) */
(PID.TID 0000.0001)                 0.000000000000000E+00
(PID.TID 0000.0001)     ;
(PID.TID 0000.0001) startTime =  /* Run start time ( s ) */
(PID.TID 0000.0001)                 0.000000000000000E+00
(PID.TID 0000.0001)     ;
(PID.TID 0000.0001) endTime  =   /* Integration ending time ( s ) */
(PID.TID 0000.0001)                 3.600000000000000E+03
(PID.TID 0000.0001)     ;
(PID.TID 0000.0001) pChkPtFreq = /* Permanent restart/pickup file interval ( s ) */
(PID.TID 0000.0001)                 8.640000000000000E+05
(PID.TID 0000.0001)     ;
(PID.TID 0000.0001) chkPtFreq  = /* Rolling restart/pickup file interval ( s ) */
(PID.TID 0000.0001)                 0.000000000000000E+00
(PID.TID 0000.0001)     ;
(PID.TID 0000.0001) pickup_write_mdsio =   /* Model IO flag. */
(PID.TID 0000.0001)                   T
(PID.TID 0000.0001)     ;
(PID.TID 0000.0001) pickup_read_mdsio =   /* Model IO flag. */
(PID.TID 0000.0001)                   T
(PID.TID 0000.0001)     ;
(PID.TID 0000.0001) writePickupAtEnd =   /* Model IO flag. */
(PID.TID 0000.0001)                   T
(PID.TID 0000.0001)     ;
(PID.TID 0000.0001) dumpFreq =   /* Model state write out interval ( s ). */
(PID.TID 0000.0001)                 0.000000000000000E+00
(PID.TID 0000.0001)     ;
(PID.TID 0000.0001) dumpInitAndLast= /* write out Initial & Last iter. model state */
(PID.TID 0000.0001)                   F
(PID.TID 0000.0001)     ;
(PID.TID 0000.0001) snapshot_mdsio =   /* Model IO flag. */
(PID.TID 0000.0001)                   T
(PID.TID 0000.0001)     ;
(PID.TID 0000.0001) monitorFreq =   /* Monitor output interval ( s ). */
(PID.TID 0000.0001)                 2.400000000000000E+02
(PID.TID 0000.0001)     ;
(PID.TID 0000.0001) monitorSelect = /* select group of variables to monitor */
(PID.TID 0000.0001)                       3
(PID.TID 0000.0001)     ;
(PID.TID 0000.0001) monitor_stdio =   /* Model IO flag. */
(PID.TID 0000.0001)                   T
(PID.TID 0000.0001)     ;
(PID.TID 0000.0001) externForcingPeriod =   /* forcing period (s) */
(PID.TID 0000.0001)                 0.000000000000000E+00
(PID.TID 0000.0001)     ;
(PID.TID 0000.0001) externForcingCycle =   /* period of the cyle (s). */
(PID.TID 0000.0001)                 0.000000000000000E+00
(PID.TID 0000.0001)     ;
(PID.TID 0000.0001) tauThetaClimRelax =   /* relaxation time scale (s) */
(PID.TID 0000.0001)                 0.000000000000000E+00
(PID.TID 0000.0001)     ;
(PID.TID 0000.0001) tauSaltClimRelax =   /* relaxation time scale (s) */
(PID.TID 0000.0001)                 0.000000000000000E+00
(PID.TID 0000.0001)     ;
(PID.TID 0000.0001) latBandClimRelax =   /* max. Lat. where relaxation */
(PID.TID 0000.0001)                 1.800000000000000E+02
(PID.TID 0000.0001)     ;
(PID.TID 0000.0001) //
(PID.TID 0000.0001) // Gridding paramters ( PARM04 in namelist )
(PID.TID 0000.0001) //
(PID.TID 0000.0001) usingCartesianGrid = /* Cartesian coordinates flag ( True/False ) */
(PID.TID 0000.0001)                   F
(PID.TID 0000.0001)     ;
(PID.TID 0000.0001) usingCylindricalGrid = /* Cylindrical coordinates flag ( True/False ) */
(PID.TID 0000.0001)                   F
(PID.TID 0000.0001)     ;
(PID.TID 0000.0001) usingSphericalPolarGrid = /* Spherical coordinates flag ( True/False ) */
(PID.TID 0000.0001)                   F
(PID.TID 0000.0001)     ;
(PID.TID 0000.0001) usingCurvilinearGrid = /* Curvilinear coordinates flag ( True/False ) */
(PID.TID 0000.0001)                   T
(PID.TID 0000.0001)     ;
(PID.TID 0000.0001) useMin4hFacEdges = /* set hFacW,S as minimum of adjacent hFacC factor */
(PID.TID 0000.0001)                   F
(PID.TID 0000.0001)     ;
(PID.TID 0000.0001) interViscAr_pCell = /* account for partial-cell in interior vert. viscosity */
(PID.TID 0000.0001)                   F
(PID.TID 0000.0001)     ;
(PID.TID 0000.0001) interDiffKr_pCell = /* account for partial-cell in interior vert. diffusion */
(PID.TID 0000.0001)                   F
(PID.TID 0000.0001)     ;
(PID.TID 0000.0001) pCellMix_select = /* option to enhance mixing near surface & bottom */
(PID.TID 0000.0001)                       0
(PID.TID 0000.0001)     ;
(PID.TID 0000.0001) selectSigmaCoord = /* Hybrid-Sigma Vert. Coordinate option */
(PID.TID 0000.0001)                       0
(PID.TID 0000.0001)     ;
(PID.TID 0000.0001) rSigmaBnd = /* r/sigma transition ( units of r ==  m ) */
(PID.TID 0000.0001)                 1.234567000000000E+05
(PID.TID 0000.0001)     ;
(PID.TID 0000.0001) rkSign =   /* index orientation relative to vertical coordinate */
(PID.TID 0000.0001)                -1.000000000000000E+00
(PID.TID 0000.0001)     ;
(PID.TID 0000.0001) gravitySign = /* gravity orientation relative to vertical coordinate */
(PID.TID 0000.0001)                -1.000000000000000E+00
(PID.TID 0000.0001)     ;
(PID.TID 0000.0001) seaLev_Z =  /* reference height of sea-level [m] */
(PID.TID 0000.0001)                 0.000000000000000E+00
(PID.TID 0000.0001)     ;
(PID.TID 0000.0001) top_Pres =  /* reference pressure at the top [Pa] */
(PID.TID 0000.0001)                 0.000000000000000E+00
(PID.TID 0000.0001)     ;
(PID.TID 0000.0001) mass2rUnit = /* convert mass per unit area [kg/m2] to r-units [m] */
(PID.TID 0000.0001)                 9.718172983479105E-04
(PID.TID 0000.0001)     ;
(PID.TID 0000.0001) rUnit2mass = /* convert r-units [m] to mass per unit area [kg/m2] */
(PID.TID 0000.0001)                 1.029000000000000E+03
(PID.TID 0000.0001)     ;
(PID.TID 0000.0001) drC =   /* C spacing ( units of r ) */
(PID.TID 0000.0001)                 2.500000000000000E+00,      /* K =  1 */
(PID.TID 0000.0001)    14 @  5.000000000000000E+00,             /* K =  2: 15 */
(PID.TID 0000.0001)                 5.005000000000000E+00,      /* K = 16 */
(PID.TID 0000.0001)                 5.010000000000000E+00,      /* K = 17 */
(PID.TID 0000.0001)                 5.015000000000000E+00,      /* K = 18 */
(PID.TID 0000.0001)                 5.029999999999999E+00,      /* K = 19 */
(PID.TID 0000.0001)                 5.055000000000000E+00,      /* K = 20 */
(PID.TID 0000.0001)                 5.095000000000001E+00,      /* K = 21 */
(PID.TID 0000.0001)                 5.160000000000000E+00,      /* K = 22 */
(PID.TID 0000.0001)                 5.255000000000000E+00,      /* K = 23 */
(PID.TID 0000.0001)                 5.400000000000000E+00,      /* K = 24 */
(PID.TID 0000.0001)                 5.605000000000000E+00,      /* K = 25 */
(PID.TID 0000.0001)                 5.880000000000000E+00,      /* K = 26 */
(PID.TID 0000.0001)                 6.245000000000000E+00,      /* K = 27 */
(PID.TID 0000.0001)                 6.710000000000000E+00,      /* K = 28 */
(PID.TID 0000.0001)                 7.295000000000000E+00,      /* K = 29 */
(PID.TID 0000.0001)                 8.020000000000000E+00,      /* K = 30 */
(PID.TID 0000.0001)                 8.890000000000001E+00,      /* K = 31 */
(PID.TID 0000.0001)                 9.910000000000000E+00,      /* K = 32 */
(PID.TID 0000.0001)                 1.109000000000000E+01,      /* K = 33 */
(PID.TID 0000.0001)                 1.242500000000000E+01,      /* K = 34 */
(PID.TID 0000.0001)                 1.391500000000000E+01,      /* K = 35 */
(PID.TID 0000.0001)                 1.555000000000000E+01,      /* K = 36 */
(PID.TID 0000.0001)                 1.732000000000000E+01,      /* K = 37 */
(PID.TID 0000.0001)                 1.921000000000000E+01,      /* K = 38 */
(PID.TID 0000.0001)                 2.119500000000000E+01,      /* K = 39 */
(PID.TID 0000.0001)                 2.325000000000000E+01,      /* K = 40 */
(PID.TID 0000.0001)                 2.536000000000000E+01,      /* K = 41 */
(PID.TID 0000.0001)                 2.750000000000000E+01,      /* K = 42 */
(PID.TID 0000.0001)                 2.964000000000000E+01,      /* K = 43 */
(PID.TID 0000.0001)                 3.175000000000000E+01,      /* K = 44 */
(PID.TID 0000.0001)                 3.380500000000000E+01,      /* K = 45 */
(PID.TID 0000.0001)                 3.579000000000000E+01,      /* K = 46 */
(PID.TID 0000.0001)                 3.768000000000000E+01,      /* K = 47 */
(PID.TID 0000.0001)                 3.945000000000000E+01,      /* K = 48 */
(PID.TID 0000.0001)                 4.108499999999999E+01,      /* K = 49 */
(PID.TID 0000.0001)                 4.257500000000000E+01,      /* K = 50 */
(PID.TID 0000.0001)                 4.391000000000000E+01,      /* K = 51 */
(PID.TID 0000.0001)                 4.509000000000000E+01,      /* K = 52 */
(PID.TID 0000.0001)                 4.611000000000000E+01,      /* K = 53 */
(PID.TID 0000.0001)                 4.698000000000000E+01,      /* K = 54 */
(PID.TID 0000.0001)                 4.770500000000000E+01,      /* K = 55 */
(PID.TID 0000.0001)                 4.829000000000000E+01,      /* K = 56 */
(PID.TID 0000.0001)                 4.875500000000000E+01,      /* K = 57 */
(PID.TID 0000.0001)                 4.912500000000000E+01,      /* K = 58 */
(PID.TID 0000.0001)                 4.941000000000000E+01,      /* K = 59 */
(PID.TID 0000.0001)                 4.962500000000000E+01,      /* K = 60 */
(PID.TID 0000.0001)                 4.981000000000000E+01,      /* K = 61 */
(PID.TID 0000.0001)                 5.000500000000000E+01,      /* K = 62 */
(PID.TID 0000.0001)                 5.026000000000000E+01,      /* K = 63 */
(PID.TID 0000.0001)                 5.066500000000000E+01,      /* K = 64 */
(PID.TID 0000.0001)                 5.130500000000000E+01,      /* K = 65 */
(PID.TID 0000.0001)                 5.228000000000000E+01,      /* K = 66 */
(PID.TID 0000.0001)                 5.370500000000000E+01,      /* K = 67 */
(PID.TID 0000.0001)                 5.566500000000000E+01,      /* K = 68 */
(PID.TID 0000.0001)                 5.823000000000000E+01,      /* K = 69 */
(PID.TID 0000.0001)                 6.141500000000000E+01,      /* K = 70 */
(PID.TID 0000.0001)                 6.521000000000001E+01,      /* K = 71 */
(PID.TID 0000.0001)                 6.954500000000000E+01,      /* K = 72 */
(PID.TID 0000.0001)                 7.433000000000000E+01,      /* K = 73 */
(PID.TID 0000.0001)                 7.947000000000000E+01,      /* K = 74 */
(PID.TID 0000.0001)                 8.486000000000000E+01,      /* K = 75 */
(PID.TID 0000.0001)                 9.041499999999999E+01,      /* K = 76 */
(PID.TID 0000.0001)                 9.606500000000000E+01,      /* K = 77 */
(PID.TID 0000.0001)                 1.017750000000000E+02,      /* K = 78 */
(PID.TID 0000.0001)                 1.075100000000000E+02,      /* K = 79 */
(PID.TID 0000.0001)                 1.132500000000000E+02,      /* K = 80 */
(PID.TID 0000.0001)                 1.189950000000000E+02,      /* K = 81 */
(PID.TID 0000.0001)                 1.247500000000000E+02,      /* K = 82 */
(PID.TID 0000.0001)                 1.305050000000000E+02,      /* K = 83 */
(PID.TID 0000.0001)                 1.362500000000000E+02,      /* K = 84 */
(PID.TID 0000.0001)                 1.419950000000000E+02,      /* K = 85 */
(PID.TID 0000.0001)                 1.477500000000000E+02,      /* K = 86 */
(PID.TID 0000.0001)                 1.535050000000000E+02,      /* K = 87 */
(PID.TID 0000.0001)                 1.592500000000000E+02,      /* K = 88 */
(PID.TID 0000.0001)                 1.649950000000000E+02,      /* K = 89 */
(PID.TID 0000.0001)                 1.707500000000000E+02,      /* K = 90 */
(PID.TID 0000.0001)                 1.765050000000000E+02,      /* K = 91 */
(PID.TID 0000.0001)                 1.822500000000000E+02,      /* K = 92 */
(PID.TID 0000.0001)                 1.879950000000000E+02,      /* K = 93 */
(PID.TID 0000.0001)                 1.937500000000000E+02,      /* K = 94 */
(PID.TID 0000.0001)                 1.995050000000000E+02,      /* K = 95 */
(PID.TID 0000.0001)                 2.052500000000000E+02,      /* K = 96 */
(PID.TID 0000.0001)                 2.109950000000000E+02,      /* K = 97 */
(PID.TID 0000.0001)                 2.167500000000000E+02,      /* K = 98 */
(PID.TID 0000.0001)                 2.225050000000000E+02,      /* K = 99 */
(PID.TID 0000.0001)                 2.282500000000000E+02,      /* K =100 */
(PID.TID 0000.0001)                 1.155600000000000E+02       /* K =101 */
(PID.TID 0000.0001)     ;
(PID.TID 0000.0001) drF =   /* W spacing ( units of r ) */
(PID.TID 0000.0001)    15 @  5.000000000000000E+00,             /* K =  1: 15 */
(PID.TID 0000.0001)     2 @  5.010000000000000E+00,             /* K = 16: 17 */
(PID.TID 0000.0001)                 5.020000000000000E+00,      /* K = 18 */
(PID.TID 0000.0001)                 5.040000000000000E+00,      /* K = 19 */
(PID.TID 0000.0001)                 5.070000000000000E+00,      /* K = 20 */
(PID.TID 0000.0001)                 5.120000000000000E+00,      /* K = 21 */
(PID.TID 0000.0001)                 5.200000000000000E+00,      /* K = 22 */
(PID.TID 0000.0001)                 5.310000000000000E+00,      /* K = 23 */
(PID.TID 0000.0001)                 5.490000000000000E+00,      /* K = 24 */
(PID.TID 0000.0001)                 5.720000000000000E+00,      /* K = 25 */
(PID.TID 0000.0001)                 6.040000000000000E+00,      /* K = 26 */
(PID.TID 0000.0001)                 6.450000000000000E+00,      /* K = 27 */
(PID.TID 0000.0001)                 6.970000000000000E+00,      /* K = 28 */
(PID.TID 0000.0001)                 7.620000000000000E+00,      /* K = 29 */
(PID.TID 0000.0001)                 8.420000000000000E+00,      /* K = 30 */
(PID.TID 0000.0001)                 9.359999999999999E+00,      /* K = 31 */
(PID.TID 0000.0001)                 1.046000000000000E+01,      /* K = 32 */
(PID.TID 0000.0001)                 1.172000000000000E+01,      /* K = 33 */
(PID.TID 0000.0001)                 1.313000000000000E+01,      /* K = 34 */
(PID.TID 0000.0001)                 1.470000000000000E+01,      /* K = 35 */
(PID.TID 0000.0001)                 1.640000000000000E+01,      /* K = 36 */
(PID.TID 0000.0001)                 1.824000000000000E+01,      /* K = 37 */
(PID.TID 0000.0001)                 2.018000000000000E+01,      /* K = 38 */
(PID.TID 0000.0001)                 2.221000000000000E+01,      /* K = 39 */
(PID.TID 0000.0001)                 2.429000000000000E+01,      /* K = 40 */
(PID.TID 0000.0001)                 2.643000000000000E+01,      /* K = 41 */
(PID.TID 0000.0001)                 2.857000000000000E+01,      /* K = 42 */
(PID.TID 0000.0001)                 3.071000000000000E+01,      /* K = 43 */
(PID.TID 0000.0001)                 3.279000000000000E+01,      /* K = 44 */
(PID.TID 0000.0001)                 3.482000000000000E+01,      /* K = 45 */
(PID.TID 0000.0001)                 3.676000000000000E+01,      /* K = 46 */
(PID.TID 0000.0001)                 3.860000000000000E+01,      /* K = 47 */
(PID.TID 0000.0001)                 4.030000000000000E+01,      /* K = 48 */
(PID.TID 0000.0001)                 4.187000000000000E+01,      /* K = 49 */
(PID.TID 0000.0001)                 4.328000000000000E+01,      /* K = 50 */
(PID.TID 0000.0001)                 4.454000000000000E+01,      /* K = 51 */
(PID.TID 0000.0001)                 4.564000000000000E+01,      /* K = 52 */
(PID.TID 0000.0001)                 4.658000000000000E+01,      /* K = 53 */
(PID.TID 0000.0001)                 4.738000000000000E+01,      /* K = 54 */
(PID.TID 0000.0001)                 4.803000000000000E+01,      /* K = 55 */
(PID.TID 0000.0001)                 4.855000000000000E+01,      /* K = 56 */
(PID.TID 0000.0001)                 4.896000000000000E+01,      /* K = 57 */
(PID.TID 0000.0001)                 4.929000000000000E+01,      /* K = 58 */
(PID.TID 0000.0001)                 4.953000000000000E+01,      /* K = 59 */
(PID.TID 0000.0001)                 4.972000000000000E+01,      /* K = 60 */
(PID.TID 0000.0001)                 4.990000000000000E+01,      /* K = 61 */
(PID.TID 0000.0001)                 5.011000000000000E+01,      /* K = 62 */
(PID.TID 0000.0001)                 5.041000000000000E+01,      /* K = 63 */
(PID.TID 0000.0001)                 5.092000000000000E+01,      /* K = 64 */
(PID.TID 0000.0001)                 5.169000000000000E+01,      /* K = 65 */
(PID.TID 0000.0001)                 5.287000000000000E+01,      /* K = 66 */
(PID.TID 0000.0001)                 5.454000000000000E+01,      /* K = 67 */
(PID.TID 0000.0001)                 5.679000000000000E+01,      /* K = 68 */
(PID.TID 0000.0001)                 5.967000000000000E+01,      /* K = 69 */
(PID.TID 0000.0001)                 6.316000000000000E+01,      /* K = 70 */
(PID.TID 0000.0001)                 6.726000000000001E+01,      /* K = 71 */
(PID.TID 0000.0001)                 7.183000000000000E+01,      /* K = 72 */
(PID.TID 0000.0001)                 7.683000000000000E+01,      /* K = 73 */
(PID.TID 0000.0001)                 8.211000000000000E+01,      /* K = 74 */
(PID.TID 0000.0001)                 8.761000000000000E+01,      /* K = 75 */
(PID.TID 0000.0001)                 9.322000000000000E+01,      /* K = 76 */
(PID.TID 0000.0001)                 9.891000000000000E+01,      /* K = 77 */
(PID.TID 0000.0001)                 1.046400000000000E+02,      /* K = 78 */
(PID.TID 0000.0001)                 1.103800000000000E+02,      /* K = 79 */
(PID.TID 0000.0001)                 1.161200000000000E+02,      /* K = 80 */
(PID.TID 0000.0001)                 1.218700000000000E+02,      /* K = 81 */
(PID.TID 0000.0001)                 1.276300000000000E+02,      /* K = 82 */
(PID.TID 0000.0001)                 1.333800000000000E+02,      /* K = 83 */
(PID.TID 0000.0001)                 1.391200000000000E+02,      /* K = 84 */
(PID.TID 0000.0001)                 1.448700000000000E+02,      /* K = 85 */
(PID.TID 0000.0001)                 1.506300000000000E+02,      /* K = 86 */
(PID.TID 0000.0001)                 1.563800000000000E+02,      /* K = 87 */
(PID.TID 0000.0001)                 1.621200000000000E+02,      /* K = 88 */
(PID.TID 0000.0001)                 1.678700000000000E+02,      /* K = 89 */
(PID.TID 0000.0001)                 1.736300000000000E+02,      /* K = 90 */
(PID.TID 0000.0001)                 1.793800000000000E+02,      /* K = 91 */
(PID.TID 0000.0001)                 1.851200000000000E+02,      /* K = 92 */
(PID.TID 0000.0001)                 1.908700000000000E+02,      /* K = 93 */
(PID.TID 0000.0001)                 1.966300000000000E+02,      /* K = 94 */
(PID.TID 0000.0001)                 2.023800000000000E+02,      /* K = 95 */
(PID.TID 0000.0001)                 2.081200000000000E+02,      /* K = 96 */
(PID.TID 0000.0001)                 2.138700000000000E+02,      /* K = 97 */
(PID.TID 0000.0001)                 2.196300000000000E+02,      /* K = 98 */
(PID.TID 0000.0001)                 2.253800000000000E+02,      /* K = 99 */
(PID.TID 0000.0001)                 2.311200000000000E+02       /* K =100 */
(PID.TID 0000.0001)     ;
(PID.TID 0000.0001) radius_fromHorizGrid = /* sphere Radius of input horiz. grid */
(PID.TID 0000.0001)                 6.370000000000000E+06
(PID.TID 0000.0001)     ;
(PID.TID 0000.0001) rSphere =  /* Radius ( ignored - cartesian, m - spherical ) */
(PID.TID 0000.0001)                 6.370000000000000E+06
(PID.TID 0000.0001)     ;
(PID.TID 0000.0001) deepAtmosphere = /* Deep/Shallow Atmosphere flag (True/False) */
(PID.TID 0000.0001)                   F
(PID.TID 0000.0001)     ;
(PID.TID 0000.0001) xC =  /* xC(:,1,:,1) : P-point X coord ( deg. or m if cartesian) */
(PID.TID 0000.0001)                -3.797916666666667E+01,      /* I =  1 */
(PID.TID 0000.0001)                -3.793750000000001E+01,      /* I =  2 */
(PID.TID 0000.0001)                -3.789583333333334E+01,      /* I =  3 */
(PID.TID 0000.0001)      . . .
(PID.TID 0000.0001)                -3.714583333333334E+01,      /* I = 21 */
(PID.TID 0000.0001)                -3.710416666666665E+01,      /* I = 22 */
(PID.TID 0000.0001)                -3.706250000000000E+01,      /* I = 23 */
(PID.TID 0000.0001)                -3.702083333333332E+01,      /* I = 24 */
(PID.TID 0000.0001)                -3.697916666666666E+01,      /* I = 25 */
(PID.TID 0000.0001)                -3.693750000000001E+01,      /* I = 26 */
(PID.TID 0000.0001)      . . .
(PID.TID 0000.0001)                -3.622916666666667E+01,      /* I = 43 */
(PID.TID 0000.0001)                -3.618749999999999E+01,      /* I = 44 */
(PID.TID 0000.0001)                -3.614583333333332E+01,      /* I = 45 */
(PID.TID 0000.0001)                -3.610416666666667E+01,      /* I = 46 */
(PID.TID 0000.0001)                -3.606249999999999E+01,      /* I = 47 */
(PID.TID 0000.0001)                -3.602083333333334E+01,      /* I = 48 */
(PID.TID 0000.0001)      . . .
(PID.TID 0000.0001)                -3.531250000000000E+01,      /* I = 65 */
(PID.TID 0000.0001)                -3.527083333333334E+01,      /* I = 66 */
(PID.TID 0000.0001)                -3.522916666666666E+01,      /* I = 67 */
(PID.TID 0000.0001)                -3.518750000000001E+01,      /* I = 68 */
(PID.TID 0000.0001)                -3.514583333333334E+01,      /* I = 69 */
(PID.TID 0000.0001)                -3.510416666666666E+01,      /* I = 70 */
(PID.TID 0000.0001)      . . .
(PID.TID 0000.0001)                -3.435416666666666E+01,      /* I = 88 */
(PID.TID 0000.0001)                -3.431250000000000E+01,      /* I = 89 */
(PID.TID 0000.0001)                -3.427083333333334E+01       /* I = 90 */
(PID.TID 0000.0001)     ;
(PID.TID 0000.0001) yC =  /* yC(1,:,1,:) : P-point Y coord ( deg. or m if cartesian) */
(PID.TID 0000.0001)                 2.666717234476562E+01,      /* J =  1 */
(PID.TID 0000.0001)                 2.670139886784720E+01,      /* J =  2 */
(PID.TID 0000.0001)                 2.673561527194147E+01,      /* J =  3 */
(PID.TID 0000.0001)      . . .
(PID.TID 0000.0001)                 2.734977199501746E+01,      /* J = 21 */
(PID.TID 0000.0001)                 2.738379477629134E+01,      /* J = 22 */
(PID.TID 0000.0001)                 2.741780729630532E+01,      /* J = 23 */
(PID.TID 0000.0001)                 2.745180954811105E+01,      /* J = 24 */
(PID.TID 0000.0001)                 2.748580152477592E+01,      /* J = 25 */
(PID.TID 0000.0001)                 2.751978321938307E+01,      /* J = 26 */
(PID.TID 0000.0001)      . . .
(PID.TID 0000.0001)                 2.809589224657305E+01,      /* J = 43 */
(PID.TID 0000.0001)                 2.812968769927133E+01,      /* J = 44 */
(PID.TID 0000.0001)                 2.816347274147650E+01,      /* J = 45 */
(PID.TID 0000.0001)                 2.819724736658575E+01,      /* J = 46 */
(PID.TID 0000.0001)                 2.823101156801198E+01,      /* J = 47 */
(PID.TID 0000.0001)                 2.826476533918369E+01,      /* J = 48 */
(PID.TID 0000.0001)      . . .
(PID.TID 0000.0001)                 2.883697732829152E+01,      /* J = 65 */
(PID.TID 0000.0001)                 2.887054224901064E+01,      /* J = 66 */
(PID.TID 0000.0001)                 2.890409661759102E+01,      /* J = 67 */
(PID.TID 0000.0001)                 2.893764042777396E+01,      /* J = 68 */
(PID.TID 0000.0001)                 2.897117367331634E+01,      /* J = 69 */
(PID.TID 0000.0001)                 2.900469634799065E+01,      /* J = 70 */
(PID.TID 0000.0001)      . . .
(PID.TID 0000.0001)                 2.960628986753825E+01,      /* J = 88 */
(PID.TID 0000.0001)                 2.963961053319994E+01,      /* J = 89 */
(PID.TID 0000.0001)                 2.967292050671132E+01       /* J = 90 */
(PID.TID 0000.0001)     ;
(PID.TID 0000.0001) rcoord = /* P-point R coordinate (  units of r ) */
(PID.TID 0000.0001)                -2.500000000000000E+00,      /* K =  1 */
(PID.TID 0000.0001)                -7.500000000000000E+00,      /* K =  2 */
(PID.TID 0000.0001)                -1.250000000000000E+01,      /* K =  3 */
(PID.TID 0000.0001)                -1.750000000000000E+01,      /* K =  4 */
(PID.TID 0000.0001)                -2.250000000000000E+01,      /* K =  5 */
(PID.TID 0000.0001)                -2.750000000000000E+01,      /* K =  6 */
(PID.TID 0000.0001)                -3.250000000000000E+01,      /* K =  7 */
(PID.TID 0000.0001)                -3.750000000000000E+01,      /* K =  8 */
(PID.TID 0000.0001)                -4.250000000000000E+01,      /* K =  9 */
(PID.TID 0000.0001)                -4.750000000000000E+01,      /* K = 10 */
(PID.TID 0000.0001)                -5.250000000000000E+01,      /* K = 11 */
(PID.TID 0000.0001)                -5.750000000000000E+01,      /* K = 12 */
(PID.TID 0000.0001)                -6.250000000000000E+01,      /* K = 13 */
(PID.TID 0000.0001)                -6.750000000000000E+01,      /* K = 14 */
(PID.TID 0000.0001)                -7.250000000000000E+01,      /* K = 15 */
(PID.TID 0000.0001)                -7.750500000000000E+01,      /* K = 16 */
(PID.TID 0000.0001)                -8.251500000000000E+01,      /* K = 17 */
(PID.TID 0000.0001)                -8.753000000000000E+01,      /* K = 18 */
(PID.TID 0000.0001)                -9.256000000000000E+01,      /* K = 19 */
(PID.TID 0000.0001)                -9.761500000000001E+01,      /* K = 20 */
(PID.TID 0000.0001)                -1.027100000000000E+02,      /* K = 21 */
(PID.TID 0000.0001)                -1.078700000000000E+02,      /* K = 22 */
(PID.TID 0000.0001)                -1.131250000000000E+02,      /* K = 23 */
(PID.TID 0000.0001)                -1.185250000000000E+02,      /* K = 24 */
(PID.TID 0000.0001)                -1.241300000000000E+02,      /* K = 25 */
(PID.TID 0000.0001)                -1.300100000000000E+02,      /* K = 26 */
(PID.TID 0000.0001)                -1.362550000000000E+02,      /* K = 27 */
(PID.TID 0000.0001)                -1.429650000000000E+02,      /* K = 28 */
(PID.TID 0000.0001)                -1.502600000000000E+02,      /* K = 29 */
(PID.TID 0000.0001)                -1.582800000000000E+02,      /* K = 30 */
(PID.TID 0000.0001)                -1.671700000000000E+02,      /* K = 31 */
(PID.TID 0000.0001)                -1.770800000000000E+02,      /* K = 32 */
(PID.TID 0000.0001)                -1.881700000000000E+02,      /* K = 33 */
(PID.TID 0000.0001)                -2.005950000000000E+02,      /* K = 34 */
(PID.TID 0000.0001)                -2.145100000000000E+02,      /* K = 35 */
(PID.TID 0000.0001)                -2.300600000000000E+02,      /* K = 36 */
(PID.TID 0000.0001)                -2.473800000000000E+02,      /* K = 37 */
(PID.TID 0000.0001)                -2.665900000000000E+02,      /* K = 38 */
(PID.TID 0000.0001)                -2.877850000000000E+02,      /* K = 39 */
(PID.TID 0000.0001)                -3.110350000000000E+02,      /* K = 40 */
(PID.TID 0000.0001)                -3.363950000000000E+02,      /* K = 41 */
(PID.TID 0000.0001)                -3.638950000000000E+02,      /* K = 42 */
(PID.TID 0000.0001)                -3.935350000000000E+02,      /* K = 43 */
(PID.TID 0000.0001)                -4.252850000000000E+02,      /* K = 44 */
(PID.TID 0000.0001)                -4.590900000000000E+02,      /* K = 45 */
(PID.TID 0000.0001)                -4.948800000000001E+02,      /* K = 46 */
(PID.TID 0000.0001)                -5.325600000000001E+02,      /* K = 47 */
(PID.TID 0000.0001)                -5.720100000000001E+02,      /* K = 48 */
(PID.TID 0000.0001)                -6.130950000000001E+02,      /* K = 49 */
(PID.TID 0000.0001)                -6.556700000000002E+02,      /* K = 50 */
(PID.TID 0000.0001)                -6.995800000000002E+02,      /* K = 51 */
(PID.TID 0000.0001)                -7.446700000000002E+02,      /* K = 52 */
(PID.TID 0000.0001)                -7.907800000000002E+02,      /* K = 53 */
(PID.TID 0000.0001)                -8.377600000000002E+02,      /* K = 54 */
(PID.TID 0000.0001)                -8.854650000000003E+02,      /* K = 55 */
(PID.TID 0000.0001)                -9.337550000000002E+02,      /* K = 56 */
(PID.TID 0000.0001)                -9.825100000000002E+02,      /* K = 57 */
(PID.TID 0000.0001)                -1.031635000000000E+03,      /* K = 58 */
(PID.TID 0000.0001)                -1.081045000000000E+03,      /* K = 59 */
(PID.TID 0000.0001)                -1.130670000000000E+03,      /* K = 60 */
(PID.TID 0000.0001)                -1.180480000000000E+03,      /* K = 61 */
(PID.TID 0000.0001)                -1.230485000000000E+03,      /* K = 62 */
(PID.TID 0000.0001)                -1.280745000000000E+03,      /* K = 63 */
(PID.TID 0000.0001)                -1.331410000000000E+03,      /* K = 64 */
(PID.TID 0000.0001)                -1.382715000000000E+03,      /* K = 65 */
(PID.TID 0000.0001)                -1.434995000000000E+03,      /* K = 66 */
(PID.TID 0000.0001)                -1.488700000000000E+03,      /* K = 67 */
(PID.TID 0000.0001)                -1.544365000000000E+03,      /* K = 68 */
(PID.TID 0000.0001)                -1.602595000000000E+03,      /* K = 69 */
(PID.TID 0000.0001)                -1.664010000000000E+03,      /* K = 70 */
(PID.TID 0000.0001)                -1.729220000000000E+03,      /* K = 71 */
(PID.TID 0000.0001)                -1.798765000000000E+03,      /* K = 72 */
(PID.TID 0000.0001)                -1.873095000000000E+03,      /* K = 73 */
(PID.TID 0000.0001)                -1.952565000000000E+03,      /* K = 74 */
(PID.TID 0000.0001)                -2.037425000000000E+03,      /* K = 75 */
(PID.TID 0000.0001)                -2.127840000000000E+03,      /* K = 76 */
(PID.TID 0000.0001)                -2.223905000000000E+03,      /* K = 77 */
(PID.TID 0000.0001)                -2.325680000000000E+03,      /* K = 78 */
(PID.TID 0000.0001)                -2.433190000000001E+03,      /* K = 79 */
(PID.TID 0000.0001)                -2.546440000000001E+03,      /* K = 80 */
(PID.TID 0000.0001)                -2.665435000000000E+03,      /* K = 81 */
(PID.TID 0000.0001)                -2.790185000000000E+03,      /* K = 82 */
(PID.TID 0000.0001)                -2.920690000000001E+03,      /* K = 83 */
(PID.TID 0000.0001)                -3.056940000000001E+03,      /* K = 84 */
(PID.TID 0000.0001)                -3.198935000000000E+03,      /* K = 85 */
(PID.TID 0000.0001)                -3.346685000000000E+03,      /* K = 86 */
(PID.TID 0000.0001)                -3.500190000000001E+03,      /* K = 87 */
(PID.TID 0000.0001)                -3.659440000000001E+03,      /* K = 88 */
(PID.TID 0000.0001)                -3.824435000000000E+03,      /* K = 89 */
(PID.TID 0000.0001)                -3.995185000000000E+03,      /* K = 90 */
(PID.TID 0000.0001)                -4.171690000000001E+03,      /* K = 91 */
(PID.TID 0000.0001)                -4.353940000000001E+03,      /* K = 92 */
(PID.TID 0000.0001)                -4.541935000000000E+03,      /* K = 93 */
(PID.TID 0000.0001)                -4.735685000000000E+03,      /* K = 94 */
(PID.TID 0000.0001)                -4.935190000000001E+03,      /* K = 95 */
(PID.TID 0000.0001)                -5.140440000000001E+03,      /* K = 96 */
(PID.TID 0000.0001)                -5.351435000000000E+03,      /* K = 97 */
(PID.TID 0000.0001)                -5.568185000000000E+03,      /* K = 98 */
(PID.TID 0000.0001)                -5.790690000000001E+03,      /* K = 99 */
(PID.TID 0000.0001)                -6.018940000000001E+03       /* K =100 */
(PID.TID 0000.0001)     ;
(PID.TID 0000.0001) rF =   /* W-Interf. R coordinate (  units of r ) */
(PID.TID 0000.0001)                 0.000000000000000E+00,      /* K =  1 */
(PID.TID 0000.0001)                -5.000000000000000E+00,      /* K =  2 */
(PID.TID 0000.0001)                -1.000000000000000E+01,      /* K =  3 */
(PID.TID 0000.0001)                -1.500000000000000E+01,      /* K =  4 */
(PID.TID 0000.0001)                -2.000000000000000E+01,      /* K =  5 */
(PID.TID 0000.0001)                -2.500000000000000E+01,      /* K =  6 */
(PID.TID 0000.0001)                -3.000000000000000E+01,      /* K =  7 */
(PID.TID 0000.0001)                -3.500000000000000E+01,      /* K =  8 */
(PID.TID 0000.0001)                -4.000000000000000E+01,      /* K =  9 */
(PID.TID 0000.0001)                -4.500000000000000E+01,      /* K = 10 */
(PID.TID 0000.0001)                -5.000000000000000E+01,      /* K = 11 */
(PID.TID 0000.0001)                -5.500000000000000E+01,      /* K = 12 */
(PID.TID 0000.0001)                -6.000000000000000E+01,      /* K = 13 */
(PID.TID 0000.0001)                -6.500000000000000E+01,      /* K = 14 */
(PID.TID 0000.0001)                -7.000000000000000E+01,      /* K = 15 */
(PID.TID 0000.0001)                -7.500000000000000E+01,      /* K = 16 */
(PID.TID 0000.0001)                -8.001000000000001E+01,      /* K = 17 */
(PID.TID 0000.0001)                -8.502000000000001E+01,      /* K = 18 */
(PID.TID 0000.0001)                -9.004000000000001E+01,      /* K = 19 */
(PID.TID 0000.0001)                -9.508000000000001E+01,      /* K = 20 */
(PID.TID 0000.0001)                -1.001500000000000E+02,      /* K = 21 */
(PID.TID 0000.0001)                -1.052700000000000E+02,      /* K = 22 */
(PID.TID 0000.0001)                -1.104700000000000E+02,      /* K = 23 */
(PID.TID 0000.0001)                -1.157800000000000E+02,      /* K = 24 */
(PID.TID 0000.0001)                -1.212700000000000E+02,      /* K = 25 */
(PID.TID 0000.0001)                -1.269900000000000E+02,      /* K = 26 */
(PID.TID 0000.0001)                -1.330300000000000E+02,      /* K = 27 */
(PID.TID 0000.0001)                -1.394800000000000E+02,      /* K = 28 */
(PID.TID 0000.0001)                -1.464500000000000E+02,      /* K = 29 */
(PID.TID 0000.0001)                -1.540700000000000E+02,      /* K = 30 */
(PID.TID 0000.0001)                -1.624900000000000E+02,      /* K = 31 */
(PID.TID 0000.0001)                -1.718500000000000E+02,      /* K = 32 */
(PID.TID 0000.0001)                -1.823100000000000E+02,      /* K = 33 */
(PID.TID 0000.0001)                -1.940300000000000E+02,      /* K = 34 */
(PID.TID 0000.0001)                -2.071600000000000E+02,      /* K = 35 */
(PID.TID 0000.0001)                -2.218600000000000E+02,      /* K = 36 */
(PID.TID 0000.0001)                -2.382600000000000E+02,      /* K = 37 */
(PID.TID 0000.0001)                -2.564999999999999E+02,      /* K = 38 */
(PID.TID 0000.0001)                -2.766799999999999E+02,      /* K = 39 */
(PID.TID 0000.0001)                -2.988899999999999E+02,      /* K = 40 */
(PID.TID 0000.0001)                -3.231799999999999E+02,      /* K = 41 */
(PID.TID 0000.0001)                -3.496100000000000E+02,      /* K = 42 */
(PID.TID 0000.0001)                -3.781799999999999E+02,      /* K = 43 */
(PID.TID 0000.0001)                -4.088899999999999E+02,      /* K = 44 */
(PID.TID 0000.0001)                -4.416799999999999E+02,      /* K = 45 */
(PID.TID 0000.0001)                -4.764999999999999E+02,      /* K = 46 */
(PID.TID 0000.0001)                -5.132600000000000E+02,      /* K = 47 */
(PID.TID 0000.0001)                -5.518600000000000E+02,      /* K = 48 */
(PID.TID 0000.0001)                -5.921600000000000E+02,      /* K = 49 */
(PID.TID 0000.0001)                -6.340300000000000E+02,      /* K = 50 */
(PID.TID 0000.0001)                -6.773099999999999E+02,      /* K = 51 */
(PID.TID 0000.0001)                -7.218499999999999E+02,      /* K = 52 */
(PID.TID 0000.0001)                -7.674899999999999E+02,      /* K = 53 */
(PID.TID 0000.0001)                -8.140699999999999E+02,      /* K = 54 */
(PID.TID 0000.0001)                -8.614499999999999E+02,      /* K = 55 */
(PID.TID 0000.0001)                -9.094799999999999E+02,      /* K = 56 */
(PID.TID 0000.0001)                -9.580299999999999E+02,      /* K = 57 */
(PID.TID 0000.0001)                -1.006990000000000E+03,      /* K = 58 */
(PID.TID 0000.0001)                -1.056280000000000E+03,      /* K = 59 */
(PID.TID 0000.0001)                -1.105810000000000E+03,      /* K = 60 */
(PID.TID 0000.0001)                -1.155530000000000E+03,      /* K = 61 */
(PID.TID 0000.0001)                -1.205430000000000E+03,      /* K = 62 */
(PID.TID 0000.0001)                -1.255540000000000E+03,      /* K = 63 */
(PID.TID 0000.0001)                -1.305950000000000E+03,      /* K = 64 */
(PID.TID 0000.0001)                -1.356870000000000E+03,      /* K = 65 */
(PID.TID 0000.0001)                -1.408560000000000E+03,      /* K = 66 */
(PID.TID 0000.0001)                -1.461430000000000E+03,      /* K = 67 */
(PID.TID 0000.0001)                -1.515970000000000E+03,      /* K = 68 */
(PID.TID 0000.0001)                -1.572760000000000E+03,      /* K = 69 */
(PID.TID 0000.0001)                -1.632430000000000E+03,      /* K = 70 */
(PID.TID 0000.0001)                -1.695590000000000E+03,      /* K = 71 */
(PID.TID 0000.0001)                -1.762850000000000E+03,      /* K = 72 */
(PID.TID 0000.0001)                -1.834680000000000E+03,      /* K = 73 */
(PID.TID 0000.0001)                -1.911510000000000E+03,      /* K = 74 */
(PID.TID 0000.0001)                -1.993620000000000E+03,      /* K = 75 */
(PID.TID 0000.0001)                -2.081230000000000E+03,      /* K = 76 */
(PID.TID 0000.0001)                -2.174450000000000E+03,      /* K = 77 */
(PID.TID 0000.0001)                -2.273360000000000E+03,      /* K = 78 */
(PID.TID 0000.0001)                -2.378000000000000E+03,      /* K = 79 */
(PID.TID 0000.0001)                -2.488380000000000E+03,      /* K = 80 */
(PID.TID 0000.0001)                -2.604500000000000E+03,      /* K = 81 */
(PID.TID 0000.0001)                -2.726369999999999E+03,      /* K = 82 */
(PID.TID 0000.0001)                -2.854000000000000E+03,      /* K = 83 */
(PID.TID 0000.0001)                -2.987380000000000E+03,      /* K = 84 */
(PID.TID 0000.0001)                -3.126500000000000E+03,      /* K = 85 */
(PID.TID 0000.0001)                -3.271369999999999E+03,      /* K = 86 */
(PID.TID 0000.0001)                -3.422000000000000E+03,      /* K = 87 */
(PID.TID 0000.0001)                -3.578380000000000E+03,      /* K = 88 */
(PID.TID 0000.0001)                -3.740500000000000E+03,      /* K = 89 */
(PID.TID 0000.0001)                -3.908369999999999E+03,      /* K = 90 */
(PID.TID 0000.0001)                -4.082000000000000E+03,      /* K = 91 */
(PID.TID 0000.0001)                -4.261379999999999E+03,      /* K = 92 */
(PID.TID 0000.0001)                -4.446499999999999E+03,      /* K = 93 */
(PID.TID 0000.0001)                -4.637369999999999E+03,      /* K = 94 */
(PID.TID 0000.0001)                -4.833999999999999E+03,      /* K = 95 */
(PID.TID 0000.0001)                -5.036379999999999E+03,      /* K = 96 */
(PID.TID 0000.0001)                -5.244499999999999E+03,      /* K = 97 */
(PID.TID 0000.0001)                -5.458369999999999E+03,      /* K = 98 */
(PID.TID 0000.0001)                -5.677999999999999E+03,      /* K = 99 */
(PID.TID 0000.0001)                -5.903379999999999E+03,      /* K =100 */
(PID.TID 0000.0001)                -6.134499999999999E+03       /* K =101 */
(PID.TID 0000.0001)     ;
(PID.TID 0000.0001) deepFacC = /* deep-model grid factor @ cell-Center (-) */
(PID.TID 0000.0001)   100 @  1.000000000000000E+00              /* K =  1:100 */
(PID.TID 0000.0001)     ;
(PID.TID 0000.0001) deepFacF = /* deep-model grid factor @ W-Interface (-) */
(PID.TID 0000.0001)   101 @  1.000000000000000E+00              /* K =  1:101 */
(PID.TID 0000.0001)     ;
(PID.TID 0000.0001) rVel2wUnit = /* convert units: rVel -> wSpeed (=1 if z-coord)*/
(PID.TID 0000.0001)   101 @  1.000000000000000E+00              /* K =  1:101 */
(PID.TID 0000.0001)     ;
(PID.TID 0000.0001) wUnit2rVel = /* convert units: wSpeed -> rVel (=1 if z-coord)*/
(PID.TID 0000.0001)   101 @  1.000000000000000E+00              /* K =  1:101 */
(PID.TID 0000.0001)     ;
(PID.TID 0000.0001) dBdrRef = /* Vertical grad. of reference buoyancy [(m/s/r)^2] */
(PID.TID 0000.0001)     5 @  0.000000000000000E+00,             /* K =  1:  5 */
(PID.TID 0000.0001)                 9.694282843778342E-06,      /* K =  6 */
(PID.TID 0000.0001)                 2.426513223807763E-05,      /* K =  7 */
(PID.TID 0000.0001)                 1.452975530153167E-05,      /* K =  8 */
(PID.TID 0000.0001)                 9.681498625854328E-06,      /* K =  9 */
(PID.TID 0000.0001)                 4.842099844624020E-05,      /* K = 10 */
(PID.TID 0000.0001)                 6.280856330023614E-05,      /* K = 11 */
(PID.TID 0000.0001)                 8.185617076656702E-05,      /* K = 12 */
(PID.TID 0000.0001)                 1.295252644691406E-04,      /* K = 13 */
(PID.TID 0000.0001)                 1.095351351384002E-04,      /* K = 14 */
(PID.TID 0000.0001)                 1.329169312007239E-04,      /* K = 15 */
(PID.TID 0000.0001)                 1.367041979360881E-04,      /* K = 16 */
(PID.TID 0000.0001)                 1.211727126593573E-04,      /* K = 17 */
(PID.TID 0000.0001)                 1.302265701121417E-04,      /* K = 18 */
(PID.TID 0000.0001)                 1.190854314588815E-04,      /* K = 19 */
(PID.TID 0000.0001)                 1.132023267377615E-04,      /* K = 20 */
(PID.TID 0000.0001)                 1.071632265654582E-04,      /* K = 21 */
(PID.TID 0000.0001)                 1.051393672457803E-04,      /* K = 22 */
(PID.TID 0000.0001)                 1.025752720636568E-04,      /* K = 23 */
(PID.TID 0000.0001)                 9.917395824143918E-05,      /* K = 24 */
(PID.TID 0000.0001)                 9.104030067387556E-05,      /* K = 25 */
(PID.TID 0000.0001)                 8.624441260795840E-05,      /* K = 26 */
(PID.TID 0000.0001)                 8.413036901537412E-05,      /* K = 27 */
(PID.TID 0000.0001)                 6.366728012651445E-05,      /* K = 28 */
(PID.TID 0000.0001)                 5.812092618380799E-05,      /* K = 29 */
(PID.TID 0000.0001)                 5.507951137016039E-05,      /* K = 30 */
(PID.TID 0000.0001)                 4.695510592930360E-05,      /* K = 31 */
(PID.TID 0000.0001)                 4.596409715692217E-05,      /* K = 32 */
(PID.TID 0000.0001)                 4.072795425761271E-05,      /* K = 33 */
(PID.TID 0000.0001)                 3.175298295526856E-05,      /* K = 34 */
(PID.TID 0000.0001)                 3.093452381022950E-05,      /* K = 35 */
(PID.TID 0000.0001)                 2.864003459600112E-05,      /* K = 36 */
(PID.TID 0000.0001)                 2.767315329576147E-05,      /* K = 37 */
(PID.TID 0000.0001)                 2.463000191580109E-05,      /* K = 38 */
(PID.TID 0000.0001)                 2.475053767167416E-05,      /* K = 39 */
(PID.TID 0000.0001)                 1.906506350221241E-05,      /* K = 40 */
(PID.TID 0000.0001)                 1.865582618722828E-05,      /* K = 41 */
(PID.TID 0000.0001)                 1.823366094760355E-05,      /* K = 42 */
(PID.TID 0000.0001)                 1.471037885515795E-05,      /* K = 43 */
(PID.TID 0000.0001)                 1.630603945735049E-05,      /* K = 44 */
(PID.TID 0000.0001)                 1.384745352787863E-05,      /* K = 45 */
(PID.TID 0000.0001)                 1.226594411185851E-05,      /* K = 46 */
(PID.TID 0000.0001)                 1.225310460290910E-05,      /* K = 47 */
(PID.TID 0000.0001)                 1.223011113144029E-05,      /* K = 48 */
(PID.TID 0000.0001)                 1.061638239990844E-05,      /* K = 49 */
(PID.TID 0000.0001)                 1.070650633014499E-05,      /* K = 50 */
(PID.TID 0000.0001)                 9.357472423340062E-06,      /* K = 51 */
(PID.TID 0000.0001)                 9.812756875994976E-06,      /* K = 52 */
(PID.TID 0000.0001)                 9.364680965538371E-06,      /* K = 53 */
(PID.TID 0000.0001)                 6.430982300518885E-06,      /* K = 54 */
(PID.TID 0000.0001)                 8.970058816087760E-06,      /* K = 55 */
(PID.TID 0000.0001)                 8.398462027768182E-06,      /* K = 56 */
(PID.TID 0000.0001)                 7.294531901104187E-06,      /* K = 57 */
(PID.TID 0000.0001)                 8.642565592484861E-06,      /* K = 58 */
(PID.TID 0000.0001)                 6.405731826441176E-06,      /* K = 59 */
(PID.TID 0000.0001)                 8.743452988220992E-06,      /* K = 60 */
(PID.TID 0000.0001)                 6.590306221026928E-06,      /* K = 61 */
(PID.TID 0000.0001)                 7.462277694900194E-06,      /* K = 62 */
(PID.TID 0000.0001)                 5.625478499738029E-06,      /* K = 63 */
(PID.TID 0000.0001)                 6.494457456351866E-06,      /* K = 64 */
(PID.TID 0000.0001)                 5.872364624284492E-06,      /* K = 65 */
(PID.TID 0000.0001)                 5.495436518643386E-06,      /* K = 66 */
(PID.TID 0000.0001)                 5.094601592541214E-06,      /* K = 67 */
(PID.TID 0000.0001)                 4.437172619322077E-06,      /* K = 68 */
(PID.TID 0000.0001)                 4.016940542409763E-06,      /* K = 69 */
(PID.TID 0000.0001)                 4.028908121728164E-06,      /* K = 70 */
(PID.TID 0000.0001)                 2.246388502686123E-06,      /* K = 71 */
(PID.TID 0000.0001)                 2.998142894531076E-06,      /* K = 72 */
(PID.TID 0000.0001)                 2.815413573924730E-06,      /* K = 73 */
(PID.TID 0000.0001)                 2.814329879263964E-06,      /* K = 74 */
(PID.TID 0000.0001)                 2.327158902006369E-06,      /* K = 75 */
(PID.TID 0000.0001)                 1.523559191918705E-06,      /* K = 76 */
(PID.TID 0000.0001)                 2.223754279938488E-06,      /* K = 77 */
(PID.TID 0000.0001)                 1.243572598777220E-06,      /* K = 78 */
(PID.TID 0000.0001)                 1.884009398486976E-06,      /* K = 79 */
(PID.TID 0000.0001)                 1.146309977456730E-06,      /* K = 80 */
(PID.TID 0000.0001)                 9.836409573498765E-07,      /* K = 81 */
(PID.TID 0000.0001)                 1.666564082034753E-06,      /* K = 82 */
(PID.TID 0000.0001)                 8.096789666921265E-07,      /* K = 83 */
(PID.TID 0000.0001)                 9.015806361848934E-07,      /* K = 84 */
(PID.TID 0000.0001)                 9.899996711216439E-07,      /* K = 85 */
(PID.TID 0000.0001)                 1.360959195968683E-06,      /* K = 86 */
(PID.TID 0000.0001)                 3.633635105266278E-07,      /* K = 87 */
(PID.TID 0000.0001)                 7.257552276248978E-07,      /* K = 88 */
(PID.TID 0000.0001)                 8.165089567519712E-07,      /* K = 89 */
(PID.TID 0000.0001)                 7.043987264958734E-07,      /* K = 90 */
(PID.TID 0000.0001)                 6.956983617110328E-07,      /* K = 91 */
(PID.TID 0000.0001)                 6.880703959048398E-07,      /* K = 92 */
(PID.TID 0000.0001)                 6.813676413074075E-07,      /* K = 93 */
(PID.TID 0000.0001)                 6.754628223828996E-07,      /* K = 94 */
(PID.TID 0000.0001)                 3.049729588883796E-07,      /* K = 95 */
(PID.TID 0000.0001)                 6.657955553385863E-07,      /* K = 96 */
(PID.TID 0000.0001)                 5.675084375793845E-07,      /* K = 97 */
(PID.TID 0000.0001)                 3.767262833194376E-07,      /* K = 98 */
(PID.TID 0000.0001)                 2.816808424830599E-07,      /* K = 99 */
(PID.TID 0000.0001)                 1.873891169846885E-07       /* K =100 */
(PID.TID 0000.0001)     ;
(PID.TID 0000.0001) rotateGrid = /* use rotated grid ( True/False ) */
(PID.TID 0000.0001)                   F
(PID.TID 0000.0001)     ;
(PID.TID 0000.0001) phiEuler = /* Euler angle, rotation about original z-coordinate [rad] */
(PID.TID 0000.0001)                 0.000000000000000E+00
(PID.TID 0000.0001)     ;
(PID.TID 0000.0001) thetaEuler = /* Euler angle, rotation about new x-coordinate [rad] */
(PID.TID 0000.0001)                 0.000000000000000E+00
(PID.TID 0000.0001)     ;
(PID.TID 0000.0001) psiEuler = /* Euler angle, rotation about new z-coordinate [rad] */
(PID.TID 0000.0001)                 0.000000000000000E+00
(PID.TID 0000.0001)     ;
(PID.TID 0000.0001) dxF =  /* dxF(:,1,:,1) ( units: m ) */
(PID.TID 0000.0001)                 4.139640777164279E+03,      /* I =  1 */
(PID.TID 0000.0001)                 4.139640777164910E+03,      /* I =  2 */
(PID.TID 0000.0001)                 4.139640777166174E+03,      /* I =  3 */
(PID.TID 0000.0001)      . . .
(PID.TID 0000.0001)                 4.139640777164277E+03,      /* I = 21 */
(PID.TID 0000.0001)                 4.139640777165542E+03,      /* I = 22 */
(PID.TID 0000.0001)                 4.139640777164910E+03,      /* I = 23 */
(PID.TID 0000.0001)                 4.139640777166173E+03,      /* I = 24 */
(PID.TID 0000.0001)                 4.139640777163015E+03,      /* I = 25 */
(PID.TID 0000.0001)                 4.139640777164910E+03,      /* I = 26 */
(PID.TID 0000.0001)      . . .
(PID.TID 0000.0001)                 4.139640777164910E+03,      /* I = 43 */
(PID.TID 0000.0001)                 4.139640777164910E+03,      /* I = 44 */
(PID.TID 0000.0001)                 4.139640777165542E+03,      /* I = 45 */
(PID.TID 0000.0001)                 4.139640777164278E+03,      /* I = 46 */
(PID.TID 0000.0001)                 4.139640777165541E+03,      /* I = 47 */
(PID.TID 0000.0001)                 4.139640777165542E+03,      /* I = 48 */
(PID.TID 0000.0001)      . . .
(PID.TID 0000.0001)                 4.139640777166174E+03,      /* I = 65 */
(PID.TID 0000.0001)                 4.139640777165541E+03,      /* I = 66 */
(PID.TID 0000.0001)                 4.139640777166174E+03,      /* I = 67 */
(PID.TID 0000.0001)                 4.139640777163646E+03,      /* I = 68 */
(PID.TID 0000.0001)                 4.139640777166174E+03,      /* I = 69 */
(PID.TID 0000.0001)                 4.139640777161118E+03,      /* I = 70 */
(PID.TID 0000.0001)      . . .
(PID.TID 0000.0001)                 4.139640777167439E+03,      /* I = 88 */
(PID.TID 0000.0001)                 4.139640777164278E+03,      /* I = 89 */
(PID.TID 0000.0001)                 4.139640777166174E+03       /* I = 90 */
(PID.TID 0000.0001)     ;
(PID.TID 0000.0001) dxF =  /* dxF(1,:,1,:) ( units: m ) */
(PID.TID 0000.0001)                 4.139640777164279E+03,      /* J =  1 */
(PID.TID 0000.0001)                 4.138398084959406E+03,      /* J =  2 */
(PID.TID 0000.0001)                 4.137154284035478E+03,      /* J =  3 */
(PID.TID 0000.0001)      . . .
(PID.TID 0000.0001)                 4.114578576882417E+03,      /* J = 21 */
(PID.TID 0000.0001)                 4.113314093659286E+03,      /* J = 22 */
(PID.TID 0000.0001)                 4.112048542065176E+03,      /* J = 23 */
(PID.TID 0000.0001)                 4.110781924117386E+03,      /* J = 24 */
(PID.TID 0000.0001)                 4.109514241831870E+03,      /* J = 25 */
(PID.TID 0000.0001)                 4.108245497223221E+03,      /* J = 26 */
(PID.TID 0000.0001)      . . .
(PID.TID 0000.0001)                 4.086516257087040E+03,      /* J = 43 */
(PID.TID 0000.0001)                 4.085228735360856E+03,      /* J = 44 */
(PID.TID 0000.0001)                 4.083940189598737E+03,      /* J = 45 */
(PID.TID 0000.0001)                 4.082650621811945E+03,      /* J = 46 */
(PID.TID 0000.0001)                 4.081360034015881E+03,      /* J = 47 */
(PID.TID 0000.0001)                 4.080068428224453E+03,      /* J = 48 */
(PID.TID 0000.0001)      . . .
(PID.TID 0000.0001)                 4.057957325182628E+03,      /* J = 65 */
(PID.TID 0000.0001)                 4.056647739302049E+03,      /* J = 66 */
(PID.TID 0000.0001)                 4.055337173610364E+03,      /* J = 67 */
(PID.TID 0000.0001)                 4.054025630118003E+03,      /* J = 68 */
(PID.TID 0000.0001)                 4.052713110829458E+03,      /* J = 69 */
(PID.TID 0000.0001)                 4.051399617750104E+03,      /* J = 70 */
(PID.TID 0000.0001)      . . .
(PID.TID 0000.0001)                 4.027592508695046E+03,      /* J = 88 */
(PID.TID 0000.0001)                 4.026260894216652E+03,      /* J = 89 */
(PID.TID 0000.0001)                 4.024928345980821E+03       /* J = 90 */
(PID.TID 0000.0001)     ;
(PID.TID 0000.0001) dyF =  /* dyF(:,1,:,1) ( units: m ) */
(PID.TID 0000.0001)     2 @  3.805780556189024E+03,             /* I =  1:  2 */
(PID.TID 0000.0001)                 3.805780556189731E+03,      /* I =  3 */
(PID.TID 0000.0001)                 3.805780556191145E+03,      /* I =  4 */
(PID.TID 0000.0001)     2 @  3.805780556189024E+03,             /* I =  5:  6 */
(PID.TID 0000.0001)     2 @  3.805780556189731E+03,             /* I =  7:  8 */
(PID.TID 0000.0001)                 3.805780556189024E+03,      /* I =  9 */
(PID.TID 0000.0001)     2 @  3.805780556190438E+03,             /* I = 10: 11 */
(PID.TID 0000.0001)                 3.805780556189731E+03,      /* I = 12 */
(PID.TID 0000.0001)     2 @  3.805780556189024E+03,             /* I = 13: 14 */
(PID.TID 0000.0001)                 3.805780556189731E+03,      /* I = 15 */
(PID.TID 0000.0001)                 3.805780556190438E+03,      /* I = 16 */
(PID.TID 0000.0001)                 3.805780556189731E+03,      /* I = 17 */
(PID.TID 0000.0001)                 3.805780556189024E+03,      /* I = 18 */
(PID.TID 0000.0001)                 3.805780556189731E+03,      /* I = 19 */
(PID.TID 0000.0001)                 3.805780556191145E+03,      /* I = 20 */
(PID.TID 0000.0001)                 3.805780556190438E+03,      /* I = 21 */
(PID.TID 0000.0001)                 3.805780556189024E+03,      /* I = 22 */
(PID.TID 0000.0001)                 3.805780556190438E+03,      /* I = 23 */
(PID.TID 0000.0001)     2 @  3.805780556189024E+03,             /* I = 24: 25 */
(PID.TID 0000.0001)                 3.805780556190438E+03,      /* I = 26 */
(PID.TID 0000.0001)                 3.805780556189024E+03,      /* I = 27 */
(PID.TID 0000.0001)                 3.805780556190438E+03,      /* I = 28 */
(PID.TID 0000.0001)     2 @  3.805780556189024E+03,             /* I = 29: 30 */
(PID.TID 0000.0001)     5 @  3.805780556189731E+03,             /* I = 31: 35 */
(PID.TID 0000.0001)     2 @  3.805780556189024E+03,             /* I = 36: 37 */
(PID.TID 0000.0001)                 3.805780556191145E+03,      /* I = 38 */
(PID.TID 0000.0001)                 3.805780556190438E+03,      /* I = 39 */
(PID.TID 0000.0001)                 3.805780556189024E+03,      /* I = 40 */
(PID.TID 0000.0001)                 3.805780556190438E+03,      /* I = 41 */
(PID.TID 0000.0001)     2 @  3.805780556189731E+03,             /* I = 42: 43 */
(PID.TID 0000.0001)                 3.805780556189024E+03,      /* I = 44 */
(PID.TID 0000.0001)                 3.805780556191145E+03,      /* I = 45 */
(PID.TID 0000.0001)                 3.805780556190438E+03,      /* I = 46 */
(PID.TID 0000.0001)     5 @  3.805780556189024E+03,             /* I = 47: 51 */
(PID.TID 0000.0001)     2 @  3.805780556189731E+03,             /* I = 52: 53 */
(PID.TID 0000.0001)                 3.805780556190438E+03,      /* I = 54 */
(PID.TID 0000.0001)                 3.805780556189024E+03,      /* I = 55 */
(PID.TID 0000.0001)     2 @  3.805780556189731E+03,             /* I = 56: 57 */
(PID.TID 0000.0001)     2 @  3.805780556189024E+03,             /* I = 58: 59 */
(PID.TID 0000.0001)     2 @  3.805780556191145E+03,             /* I = 60: 61 */
(PID.TID 0000.0001)                 3.805780556189731E+03,      /* I = 62 */
(PID.TID 0000.0001)                 3.805780556190438E+03,      /* I = 63 */
(PID.TID 0000.0001)     2 @  3.805780556189024E+03,             /* I = 64: 65 */
(PID.TID 0000.0001)                 3.805780556189731E+03,      /* I = 66 */
(PID.TID 0000.0001)                 3.805780556189024E+03,      /* I = 67 */
(PID.TID 0000.0001)                 3.805780556190438E+03,      /* I = 68 */
(PID.TID 0000.0001)     2 @  3.805780556189024E+03,             /* I = 69: 70 */
(PID.TID 0000.0001)                 3.805780556191145E+03,      /* I = 71 */
(PID.TID 0000.0001)     2 @  3.805780556189024E+03,             /* I = 72: 73 */
(PID.TID 0000.0001)                 3.805780556191145E+03,      /* I = 74 */
(PID.TID 0000.0001)     2 @  3.805780556189024E+03,             /* I = 75: 76 */
(PID.TID 0000.0001)                 3.805780556189731E+03,      /* I = 77 */
(PID.TID 0000.0001)     3 @  3.805780556189024E+03,             /* I = 78: 80 */
(PID.TID 0000.0001)                 3.805780556191145E+03,      /* I = 81 */
(PID.TID 0000.0001)                 3.805780556191145E+03,      /* I = 82 */
(PID.TID 0000.0001)     2 @  3.805780556189024E+03,             /* I = 83: 84 */
(PID.TID 0000.0001)                 3.805780556189731E+03,      /* I = 85 */
(PID.TID 0000.0001)     2 @  3.805780556189024E+03,             /* I = 86: 87 */
(PID.TID 0000.0001)     2 @  3.805780556189731E+03,             /* I = 88: 89 */
(PID.TID 0000.0001)                 3.805780556189024E+03       /* I = 90 */
(PID.TID 0000.0001)     ;
(PID.TID 0000.0001) dyF =  /* dyF(1,:,1,:) ( units: m ) */
(PID.TID 0000.0001)                 3.805780556189024E+03,      /* J =  1 */
(PID.TID 0000.0001)                 3.804655957162750E+03,      /* J =  2 */
(PID.TID 0000.0001)                 3.803530549746410E+03,      /* J =  3 */
(PID.TID 0000.0001)      . . .
(PID.TID 0000.0001)                 3.783136978678236E+03,      /* J = 21 */
(PID.TID 0000.0001)                 3.781996544636309E+03,      /* J = 22 */
(PID.TID 0000.0001)                 3.780855337215908E+03,      /* J = 23 */
(PID.TID 0000.0001)                 3.779713358176577E+03,      /* J = 24 */
(PID.TID 0000.0001)                 3.778570609261947E+03,      /* J = 25 */
(PID.TID 0000.0001)                 3.777427092213173E+03,      /* J = 26 */
(PID.TID 0000.0001)      . . .
(PID.TID 0000.0001)                 3.757871472117493E+03,      /* J = 43 */
(PID.TID 0000.0001)                 3.756714427492263E+03,      /* J = 44 */
(PID.TID 0000.0001)                 3.755556647912451E+03,      /* J = 45 */
(PID.TID 0000.0001)                 3.754398135119921E+03,      /* J = 46 */
(PID.TID 0000.0001)                 3.753238890862194E+03,      /* J = 47 */
(PID.TID 0000.0001)                 3.752078916875121E+03,      /* J = 48 */
(PID.TID 0000.0001)      . . .
(PID.TID 0000.0001)                 3.732249397397844E+03,      /* J = 65 */
(PID.TID 0000.0001)                 3.731076585837083E+03,      /* J = 66 */
(PID.TID 0000.0001)                 3.729903077586157E+03,      /* J = 67 */
(PID.TID 0000.0001)                 3.728728874370662E+03,      /* J = 68 */
(PID.TID 0000.0001)                 3.727553977931755E+03,      /* J = 69 */
(PID.TID 0000.0001)                 3.726378389998569E+03,      /* J = 70 */
(PID.TID 0000.0001)      . . .
(PID.TID 0000.0001)                 3.705101535240453E+03,      /* J = 88 */
(PID.TID 0000.0001)                 3.703913137663505E+03,      /* J = 89 */
(PID.TID 0000.0001)                 3.702724083160097E+03       /* J = 90 */
(PID.TID 0000.0001)     ;
(PID.TID 0000.0001) dxG =  /* dxG(:,1,:,1) ( units: m ) */
(PID.TID 0000.0001)                 4.140261706871251E+03,      /* I =  1 */
(PID.TID 0000.0001)                 4.140261706868722E+03,      /* I =  2 */
(PID.TID 0000.0001)                 4.140261706869986E+03,      /* I =  3 */
(PID.TID 0000.0001)      . . .
(PID.TID 0000.0001)                 4.140261706871252E+03,      /* I = 21 */
(PID.TID 0000.0001)                 4.140261706871251E+03,      /* I = 22 */
(PID.TID 0000.0001)                 4.140261706868722E+03,      /* I = 23 */
(PID.TID 0000.0001)                 4.140261706871251E+03,      /* I = 24 */
(PID.TID 0000.0001)                 4.140261706868090E+03,      /* I = 25 */
(PID.TID 0000.0001)                 4.140261706870619E+03,      /* I = 26 */
(PID.TID 0000.0001)      . . .
(PID.TID 0000.0001)                 4.140261706869986E+03,      /* I = 43 */
(PID.TID 0000.0001)                 4.140261706869986E+03,      /* I = 44 */
(PID.TID 0000.0001)                 4.140261706869986E+03,      /* I = 45 */
(PID.TID 0000.0001)                 4.140261706869986E+03,      /* I = 46 */
(PID.TID 0000.0001)                 4.140261706870619E+03,      /* I = 47 */
(PID.TID 0000.0001)                 4.140261706868722E+03,      /* I = 48 */
(PID.TID 0000.0001)      . . .
(PID.TID 0000.0001)                 4.140261706869986E+03,      /* I = 65 */
(PID.TID 0000.0001)                 4.140261706870619E+03,      /* I = 66 */
(PID.TID 0000.0001)                 4.140261706869354E+03,      /* I = 67 */
(PID.TID 0000.0001)                 4.140261706871252E+03,      /* I = 68 */
(PID.TID 0000.0001)                 4.140261706869354E+03,      /* I = 69 */
(PID.TID 0000.0001)                 4.140261706868090E+03,      /* I = 70 */
(PID.TID 0000.0001)      . . .
(PID.TID 0000.0001)                 4.140261706869354E+03,      /* I = 88 */
(PID.TID 0000.0001)                 4.140261706871252E+03,      /* I = 89 */
(PID.TID 0000.0001)                 4.140261706870619E+03       /* I = 90 */
(PID.TID 0000.0001)     ;
(PID.TID 0000.0001) dxG =  /* dxG(1,:,1,:) ( units: m ) */
(PID.TID 0000.0001)                 4.140261706871251E+03,      /* J =  1 */
(PID.TID 0000.0001)                 4.139019569774803E+03,      /* J =  2 */
(PID.TID 0000.0001)                 4.137776322960138E+03,      /* J =  3 */
(PID.TID 0000.0001)      . . .
(PID.TID 0000.0001)                 4.115210417225257E+03,      /* J = 21 */
(PID.TID 0000.0001)                 4.113946468945782E+03,      /* J = 22 */
(PID.TID 0000.0001)                 4.112681451284442E+03,      /* J = 23 */
(PID.TID 0000.0001)                 4.111415366259216E+03,      /* J = 24 */
(PID.TID 0000.0001)                 4.110148215891126E+03,      /* J = 25 */
(PID.TID 0000.0001)                 4.108880002190421E+03,      /* J = 26 */
(PID.TID 0000.0001)      . . .
(PID.TID 0000.0001)                 4.087159633305929E+03,      /* J = 43 */
(PID.TID 0000.0001)                 4.085872624353334E+03,      /* J = 44 */
(PID.TID 0000.0001)                 4.084584590356903E+03,      /* J = 45 */
(PID.TID 0000.0001)                 4.083295533329885E+03,      /* J = 46 */
(PID.TID 0000.0001)                 4.082005455289041E+03,      /* J = 47 */
(PID.TID 0000.0001)                 4.080714358244662E+03,      /* J = 48 */
(PID.TID 0000.0001)      . . .
(PID.TID 0000.0001)                 4.058611750065706E+03,      /* J = 65 */
(PID.TID 0000.0001)                 4.057302654843617E+03,      /* J = 66 */
(PID.TID 0000.0001)                 4.055992578806316E+03,      /* J = 67 */
(PID.TID 0000.0001)                 4.054681523964404E+03,      /* J = 68 */
(PID.TID 0000.0001)                 4.053369492323180E+03,      /* J = 69 */
(PID.TID 0000.0001)                 4.052056485885720E+03,      /* J = 70 */
(PID.TID 0000.0001)      . . .
(PID.TID 0000.0001)                 4.028257965154766E+03,      /* J = 88 */
(PID.TID 0000.0001)                 4.026926818301976E+03,      /* J = 89 */
(PID.TID 0000.0001)                 4.025594736691822E+03       /* J = 90 */
(PID.TID 0000.0001)     ;
(PID.TID 0000.0001) dyG =  /* dyG(:,1,:,1) ( units: m ) */
(PID.TID 0000.0001)                 3.805780556190438E+03,      /* I =  1 */
(PID.TID 0000.0001)                 3.805780556189731E+03,      /* I =  2 */
(PID.TID 0000.0001)    10 @  3.805780556189024E+03,             /* I =  3: 12 */
(PID.TID 0000.0001)                 3.805780556189731E+03,      /* I = 13 */
(PID.TID 0000.0001)     4 @  3.805780556189024E+03,             /* I = 14: 17 */
(PID.TID 0000.0001)                 3.805780556189731E+03,      /* I = 18 */
(PID.TID 0000.0001)     2 @  3.805780556189024E+03,             /* I = 19: 20 */
(PID.TID 0000.0001)                 3.805780556190438E+03,      /* I = 21 */
(PID.TID 0000.0001)                 3.805780556191145E+03,      /* I = 22 */
(PID.TID 0000.0001)                 3.805780556191145E+03,      /* I = 23 */
(PID.TID 0000.0001)                 3.805780556189024E+03,      /* I = 24 */
(PID.TID 0000.0001)                 3.805780556189731E+03,      /* I = 25 */
(PID.TID 0000.0001)                 3.805780556189024E+03,      /* I = 26 */
(PID.TID 0000.0001)                 3.805780556189731E+03,      /* I = 27 */
(PID.TID 0000.0001)                 3.805780556190438E+03,      /* I = 28 */
(PID.TID 0000.0001)                 3.805780556189024E+03,      /* I = 29 */
(PID.TID 0000.0001)                 3.805780556190438E+03,      /* I = 30 */
(PID.TID 0000.0001)                 3.805780556189024E+03,      /* I = 31 */
(PID.TID 0000.0001)                 3.805780556191145E+03,      /* I = 32 */
(PID.TID 0000.0001)     2 @  3.805780556190438E+03,             /* I = 33: 34 */
(PID.TID 0000.0001)     2 @  3.805780556189024E+03,             /* I = 35: 36 */
(PID.TID 0000.0001)                 3.805780556191145E+03,      /* I = 37 */
(PID.TID 0000.0001)     2 @  3.805780556189024E+03,             /* I = 38: 39 */
(PID.TID 0000.0001)                 3.805780556191145E+03,      /* I = 40 */
(PID.TID 0000.0001)                 3.805780556189024E+03,      /* I = 41 */
(PID.TID 0000.0001)                 3.805780556188316E+03,      /* I = 42 */
(PID.TID 0000.0001)                 3.805780556189024E+03,      /* I = 43 */
(PID.TID 0000.0001)                 3.805780556190438E+03,      /* I = 44 */
(PID.TID 0000.0001)                 3.805780556189731E+03,      /* I = 45 */
(PID.TID 0000.0001)                 3.805780556189731E+03,      /* I = 46 */
(PID.TID 0000.0001)                 3.805780556188316E+03,      /* I = 47 */
(PID.TID 0000.0001)     3 @  3.805780556189024E+03,             /* I = 48: 50 */
(PID.TID 0000.0001)     2 @  3.805780556190438E+03,             /* I = 51: 52 */
(PID.TID 0000.0001)                 3.805780556189731E+03,      /* I = 53 */
(PID.TID 0000.0001)                 3.805780556190438E+03,      /* I = 54 */
(PID.TID 0000.0001)                 3.805780556189731E+03,      /* I = 55 */
(PID.TID 0000.0001)                 3.805780556189024E+03,      /* I = 56 */
(PID.TID 0000.0001)                 3.805780556189731E+03,      /* I = 57 */
(PID.TID 0000.0001)                 3.805780556189731E+03,      /* I = 58 */
(PID.TID 0000.0001)                 3.805780556190438E+03,      /* I = 59 */
(PID.TID 0000.0001)     2 @  3.805780556189024E+03,             /* I = 60: 61 */
(PID.TID 0000.0001)                 3.805780556189731E+03,      /* I = 62 */
(PID.TID 0000.0001)                 3.805780556189731E+03,      /* I = 63 */
(PID.TID 0000.0001)     3 @  3.805780556189024E+03,             /* I = 64: 66 */
(PID.TID 0000.0001)                 3.805780556190438E+03,      /* I = 67 */
(PID.TID 0000.0001)                 3.805780556189731E+03,      /* I = 68 */
(PID.TID 0000.0001)                 3.805780556191145E+03,      /* I = 69 */
(PID.TID 0000.0001)                 3.805780556190438E+03,      /* I = 70 */
(PID.TID 0000.0001)                 3.805780556189024E+03,      /* I = 71 */
(PID.TID 0000.0001)                 3.805780556189731E+03,      /* I = 72 */
(PID.TID 0000.0001)     3 @  3.805780556189024E+03,             /* I = 73: 75 */
(PID.TID 0000.0001)     2 @  3.805780556189731E+03,             /* I = 76: 77 */
(PID.TID 0000.0001)                 3.805780556189024E+03,      /* I = 78 */
(PID.TID 0000.0001)                 3.805780556190438E+03,      /* I = 79 */
(PID.TID 0000.0001)                 3.805780556191145E+03,      /* I = 80 */
(PID.TID 0000.0001)                 3.805780556188316E+03,      /* I = 81 */
(PID.TID 0000.0001)     2 @  3.805780556190438E+03,             /* I = 82: 83 */
(PID.TID 0000.0001)                 3.805780556191145E+03,      /* I = 84 */
(PID.TID 0000.0001)     2 @  3.805780556189024E+03,             /* I = 85: 86 */
(PID.TID 0000.0001)                 3.805780556190438E+03,      /* I = 87 */
(PID.TID 0000.0001)                 3.805780556189024E+03,      /* I = 88 */
(PID.TID 0000.0001)     2 @  3.805780556190438E+03              /* I = 89: 90 */
(PID.TID 0000.0001)     ;
(PID.TID 0000.0001) dyG =  /* dyG(1,:,1,:) ( units: m ) */
(PID.TID 0000.0001)                 3.805780556190438E+03,      /* J =  1 */
(PID.TID 0000.0001)                 3.804655957162750E+03,      /* J =  2 */
(PID.TID 0000.0001)                 3.803530549746410E+03,      /* J =  3 */
(PID.TID 0000.0001)      . . .
(PID.TID 0000.0001)                 3.783136978678236E+03,      /* J = 21 */
(PID.TID 0000.0001)                 3.781996544636309E+03,      /* J = 22 */
(PID.TID 0000.0001)                 3.780855337215908E+03,      /* J = 23 */
(PID.TID 0000.0001)                 3.779713358176930E+03,      /* J = 24 */
(PID.TID 0000.0001)                 3.778570609261593E+03,      /* J = 25 */
(PID.TID 0000.0001)                 3.777427092213173E+03,      /* J = 26 */
(PID.TID 0000.0001)      . . .
(PID.TID 0000.0001)                 3.757871472117493E+03,      /* J = 43 */
(PID.TID 0000.0001)                 3.756714427491556E+03,      /* J = 44 */
(PID.TID 0000.0001)                 3.755556647913158E+03,      /* J = 45 */
(PID.TID 0000.0001)                 3.754398135119921E+03,      /* J = 46 */
(PID.TID 0000.0001)                 3.753238890862901E+03,      /* J = 47 */
(PID.TID 0000.0001)                 3.752078916872646E+03,      /* J = 48 */
(PID.TID 0000.0001)      . . .
(PID.TID 0000.0001)                 3.732249397397844E+03,      /* J = 65 */
(PID.TID 0000.0001)                 3.731076585836376E+03,      /* J = 66 */
(PID.TID 0000.0001)                 3.729903077586863E+03,      /* J = 67 */
(PID.TID 0000.0001)                 3.728728874369955E+03,      /* J = 68 */
(PID.TID 0000.0001)                 3.727553977932462E+03,      /* J = 69 */
(PID.TID 0000.0001)                 3.726378389999277E+03,      /* J = 70 */
(PID.TID 0000.0001)      . . .
(PID.TID 0000.0001)                 3.705101535241867E+03,      /* J = 88 */
(PID.TID 0000.0001)                 3.703913137661383E+03,      /* J = 89 */
(PID.TID 0000.0001)                 3.702724083160804E+03       /* J = 90 */
(PID.TID 0000.0001)     ;
(PID.TID 0000.0001) dxC =  /* dxC(:,1,:,1) ( units: m ) */
(PID.TID 0000.0001)                 4.139640777163015E+03,      /* I =  1 */
(PID.TID 0000.0001)                 4.139640777164278E+03,      /* I =  2 */
(PID.TID 0000.0001)                 4.139640777165541E+03,      /* I =  3 */
(PID.TID 0000.0001)      . . .
(PID.TID 0000.0001)                 4.139640777164910E+03,      /* I = 21 */
(PID.TID 0000.0001)                 4.139640777167438E+03,      /* I = 22 */
(PID.TID 0000.0001)                 4.139640777163015E+03,      /* I = 23 */
(PID.TID 0000.0001)                 4.139640777166174E+03,      /* I = 24 */
(PID.TID 0000.0001)                 4.139640777164277E+03,      /* I = 25 */
(PID.TID 0000.0001)                 4.139640777163646E+03,      /* I = 26 */
(PID.TID 0000.0001)      . . .
(PID.TID 0000.0001)                 4.139640777164910E+03,      /* I = 43 */
(PID.TID 0000.0001)                 4.139640777166173E+03,      /* I = 44 */
(PID.TID 0000.0001)                 4.139640777165541E+03,      /* I = 45 */
(PID.TID 0000.0001)                 4.139640777163015E+03,      /* I = 46 */
(PID.TID 0000.0001)                 4.139640777166805E+03,      /* I = 47 */
(PID.TID 0000.0001)                 4.139640777163015E+03,      /* I = 48 */
(PID.TID 0000.0001)      . . .
(PID.TID 0000.0001)                 4.139640777164910E+03,      /* I = 65 */
(PID.TID 0000.0001)                 4.139640777164278E+03,      /* I = 66 */
(PID.TID 0000.0001)                 4.139640777166805E+03,      /* I = 67 */
(PID.TID 0000.0001)                 4.139640777163015E+03,      /* I = 68 */
(PID.TID 0000.0001)                 4.139640777164910E+03,      /* I = 69 */
(PID.TID 0000.0001)                 4.139640777166174E+03,      /* I = 70 */
(PID.TID 0000.0001)      . . .
(PID.TID 0000.0001)                 4.139640777165542E+03,      /* I = 88 */
(PID.TID 0000.0001)                 4.139640777164910E+03,      /* I = 89 */
(PID.TID 0000.0001)                 4.139640777164910E+03       /* I = 90 */
(PID.TID 0000.0001)     ;
(PID.TID 0000.0001) dxC =  /* dxC(1,:,1,:) ( units: m ) */
(PID.TID 0000.0001)                 4.139640777163015E+03,      /* J =  1 */
(PID.TID 0000.0001)                 4.138398084958143E+03,      /* J =  2 */
(PID.TID 0000.0001)                 4.137154284032951E+03,      /* J =  3 */
(PID.TID 0000.0001)      . . .
(PID.TID 0000.0001)                 4.114578576884930E+03,      /* J = 21 */
(PID.TID 0000.0001)                 4.113314093656774E+03,      /* J = 22 */
(PID.TID 0000.0001)                 4.112048542062665E+03,      /* J = 23 */
(PID.TID 0000.0001)                 4.110781924116758E+03,      /* J = 24 */
(PID.TID 0000.0001)                 4.109514241830616E+03,      /* J = 25 */
(PID.TID 0000.0001)                 4.108245497221966E+03,      /* J = 26 */
(PID.TID 0000.0001)      . . .
(PID.TID 0000.0001)                 4.086516257086415E+03,      /* J = 43 */
(PID.TID 0000.0001)                 4.085228735359608E+03,      /* J = 44 */
(PID.TID 0000.0001)                 4.083940189598113E+03,      /* J = 45 */
(PID.TID 0000.0001)                 4.082650621811322E+03,      /* J = 46 */
(PID.TID 0000.0001)                 4.081360034014634E+03,      /* J = 47 */
(PID.TID 0000.0001)                 4.080068428223207E+03,      /* J = 48 */
(PID.TID 0000.0001)      . . .
(PID.TID 0000.0001)                 4.057957325183247E+03,      /* J = 65 */
(PID.TID 0000.0001)                 4.056647739299571E+03,      /* J = 66 */
(PID.TID 0000.0001)                 4.055337173609126E+03,      /* J = 67 */
(PID.TID 0000.0001)                 4.054025630117384E+03,      /* J = 68 */
(PID.TID 0000.0001)                 4.052713110826983E+03,      /* J = 69 */
(PID.TID 0000.0001)                 4.051399617747630E+03,      /* J = 70 */
(PID.TID 0000.0001)      . . .
(PID.TID 0000.0001)                 4.027592508695046E+03,      /* J = 88 */
(PID.TID 0000.0001)                 4.026260894220340E+03,      /* J = 89 */
(PID.TID 0000.0001)                 4.024928345982665E+03       /* J = 90 */
(PID.TID 0000.0001)     ;
(PID.TID 0000.0001) dyC =  /* dyC(:,1,:,1) ( units: m ) */
(PID.TID 0000.0001)                 3.806342552013452E+03,      /* I =  1 */
(PID.TID 0000.0001)                 3.806342552013806E+03,      /* I =  2 */
(PID.TID 0000.0001)                 3.806342552014160E+03,      /* I =  3 */
(PID.TID 0000.0001)                 3.806342552013452E+03,      /* I =  4 */
(PID.TID 0000.0001)     5 @  3.806342552013806E+03,             /* I =  5:  9 */
(PID.TID 0000.0001)     2 @  3.806342552013452E+03,             /* I = 10: 11 */
(PID.TID 0000.0001)                 3.806342552013099E+03,      /* I = 12 */
(PID.TID 0000.0001)                 3.806342552013452E+03,      /* I = 13 */
(PID.TID 0000.0001)                 3.806342552013099E+03,      /* I = 14 */
(PID.TID 0000.0001)     2 @  3.806342552013452E+03,             /* I = 15: 16 */
(PID.TID 0000.0001)                 3.806342552013806E+03,      /* I = 17 */
(PID.TID 0000.0001)                 3.806342552013099E+03,      /* I = 18 */
(PID.TID 0000.0001)                 3.806342552014160E+03,      /* I = 19 */
(PID.TID 0000.0001)                 3.806342552013806E+03,      /* I = 20 */
(PID.TID 0000.0001)                 3.806342552013452E+03,      /* I = 21 */
(PID.TID 0000.0001)                 3.806342552013806E+03,      /* I = 22 */
(PID.TID 0000.0001)                 3.806342552013452E+03,      /* I = 23 */
(PID.TID 0000.0001)                 3.806342552013099E+03,      /* I = 24 */
(PID.TID 0000.0001)                 3.806342552013452E+03,      /* I = 25 */
(PID.TID 0000.0001)                 3.806342552013099E+03,      /* I = 26 */
(PID.TID 0000.0001)     3 @  3.806342552013806E+03,             /* I = 27: 29 */
(PID.TID 0000.0001)     2 @  3.806342552013452E+03,             /* I = 30: 31 */
(PID.TID 0000.0001)                 3.806342552013806E+03,      /* I = 32 */
(PID.TID 0000.0001)                 3.806342552013452E+03,      /* I = 33 */
(PID.TID 0000.0001)     3 @  3.806342552013806E+03,             /* I = 34: 36 */
(PID.TID 0000.0001)                 3.806342552014160E+03,      /* I = 37 */
(PID.TID 0000.0001)                 3.806342552013452E+03,      /* I = 38 */
(PID.TID 0000.0001)                 3.806342552013806E+03,      /* I = 39 */
(PID.TID 0000.0001)     5 @  3.806342552013452E+03,             /* I = 40: 44 */
(PID.TID 0000.0001)                 3.806342552013806E+03,      /* I = 45 */
(PID.TID 0000.0001)                 3.806342552013099E+03,      /* I = 46 */
(PID.TID 0000.0001)                 3.806342552013806E+03,      /* I = 47 */
(PID.TID 0000.0001)                 3.806342552013452E+03,      /* I = 48 */
(PID.TID 0000.0001)                 3.806342552013806E+03,      /* I = 49 */
(PID.TID 0000.0001)                 3.806342552013452E+03,      /* I = 50 */
(PID.TID 0000.0001)                 3.806342552013806E+03,      /* I = 51 */
(PID.TID 0000.0001)     2 @  3.806342552013452E+03,             /* I = 52: 53 */
(PID.TID 0000.0001)     2 @  3.806342552013806E+03,             /* I = 54: 55 */
(PID.TID 0000.0001)                 3.806342552013452E+03,      /* I = 56 */
(PID.TID 0000.0001)                 3.806342552013806E+03,      /* I = 57 */
(PID.TID 0000.0001)     2 @  3.806342552014160E+03,             /* I = 58: 59 */
(PID.TID 0000.0001)     2 @  3.806342552013806E+03,             /* I = 60: 61 */
(PID.TID 0000.0001)     2 @  3.806342552013452E+03,             /* I = 62: 63 */
(PID.TID 0000.0001)                 3.806342552014160E+03,      /* I = 64 */
(PID.TID 0000.0001)                 3.806342552013452E+03,      /* I = 65 */
(PID.TID 0000.0001)                 3.806342552013806E+03,      /* I = 66 */
(PID.TID 0000.0001)                 3.806342552013452E+03,      /* I = 67 */
(PID.TID 0000.0001)                 3.806342552013806E+03,      /* I = 68 */
(PID.TID 0000.0001)     2 @  3.806342552013452E+03,             /* I = 69: 70 */
(PID.TID 0000.0001)     2 @  3.806342552013806E+03,             /* I = 71: 72 */
(PID.TID 0000.0001)                 3.806342552013100E+03,      /* I = 73 */
(PID.TID 0000.0001)                 3.806342552013806E+03,      /* I = 74 */
(PID.TID 0000.0001)     2 @  3.806342552013452E+03,             /* I = 75: 76 */
(PID.TID 0000.0001)     3 @  3.806342552013806E+03,             /* I = 77: 79 */
(PID.TID 0000.0001)                 3.806342552013452E+03,      /* I = 80 */
(PID.TID 0000.0001)     3 @  3.806342552013806E+03,             /* I = 81: 83 */
(PID.TID 0000.0001)     3 @  3.806342552013452E+03,             /* I = 84: 86 */
(PID.TID 0000.0001)                 3.806342552012392E+03,      /* I = 87 */
(PID.TID 0000.0001)     2 @  3.806342552013806E+03,             /* I = 88: 89 */
(PID.TID 0000.0001)                 3.806342552015220E+03       /* I = 90 */
(PID.TID 0000.0001)     ;
(PID.TID 0000.0001) dyC =  /* dyC(1,:,1,:) ( units: m ) */
(PID.TID 0000.0001)                 3.806342552013452E+03,      /* J =  1 */
(PID.TID 0000.0001)                 3.805218357834617E+03,      /* J =  2 */
(PID.TID 0000.0001)                 3.804093354393367E+03,      /* J =  3 */
(PID.TID 0000.0001)      . . .
(PID.TID 0000.0001)                 3.783706905136702E+03,      /* J = 21 */
(PID.TID 0000.0001)                 3.782566858439421E+03,      /* J = 22 */
(PID.TID 0000.0001)                 3.781426037489552E+03,      /* J = 23 */
(PID.TID 0000.0001)                 3.780284444041334E+03,      /* J = 24 */
(PID.TID 0000.0001)                 3.779142079841581E+03,      /* J = 25 */
(PID.TID 0000.0001)                 3.777998946643472E+03,      /* J = 26 */
(PID.TID 0000.0001)      . . .
(PID.TID 0000.0001)                 3.758449718276703E+03,      /* J = 43 */
(PID.TID 0000.0001)                 3.757293041782228E+03,      /* J = 44 */
(PID.TID 0000.0001)                 3.756135629462593E+03,      /* J = 45 */
(PID.TID 0000.0001)                 3.754977483059307E+03,      /* J = 46 */
(PID.TID 0000.0001)                 3.753818604317064E+03,      /* J = 47 */
(PID.TID 0000.0001)                 3.752658994974191E+03,      /* J = 48 */
(PID.TID 0000.0001)      . . .
(PID.TID 0000.0001)                 3.732835541373976E+03,      /* J = 65 */
(PID.TID 0000.0001)                 3.731663078812468E+03,      /* J = 66 */
(PID.TID 0000.0001)                 3.730489918689510E+03,      /* J = 67 */
(PID.TID 0000.0001)                 3.729316062740600E+03,      /* J = 68 */
(PID.TID 0000.0001)                 3.728141512695578E+03,      /* J = 69 */
(PID.TID 0000.0001)                 3.726966270292064E+03,      /* J = 70 */
(PID.TID 0000.0001)      . . .
(PID.TID 0000.0001)                 3.705695487143316E+03,      /* J = 88 */
(PID.TID 0000.0001)                 3.704507418674576E+03,      /* J = 89 */
(PID.TID 0000.0001)                 3.703318692418698E+03       /* J = 90 */
(PID.TID 0000.0001)     ;
(PID.TID 0000.0001) dxV =  /* dxV(:,1,:,1) ( units: m ) */
(PID.TID 0000.0001)                 4.140261706869354E+03,      /* I =  1 */
(PID.TID 0000.0001)                 4.140261706868722E+03,      /* I =  2 */
(PID.TID 0000.0001)                 4.140261706871251E+03,      /* I =  3 */
(PID.TID 0000.0001)      . . .
(PID.TID 0000.0001)                 4.140261706869354E+03,      /* I = 21 */
(PID.TID 0000.0001)                 4.140261706870619E+03,      /* I = 22 */
(PID.TID 0000.0001)                 4.140261706868722E+03,      /* I = 23 */
(PID.TID 0000.0001)                 4.140261706870619E+03,      /* I = 24 */
(PID.TID 0000.0001)                 4.140261706871251E+03,      /* I = 25 */
(PID.TID 0000.0001)                 4.140261706870619E+03,      /* I = 26 */
(PID.TID 0000.0001)      . . .
(PID.TID 0000.0001)                 4.140261706870619E+03,      /* I = 43 */
(PID.TID 0000.0001)                 4.140261706871251E+03,      /* I = 44 */
(PID.TID 0000.0001)                 4.140261706870619E+03,      /* I = 45 */
(PID.TID 0000.0001)                 4.140261706868090E+03,      /* I = 46 */
(PID.TID 0000.0001)                 4.140261706871883E+03,      /* I = 47 */
(PID.TID 0000.0001)                 4.140261706866826E+03,      /* I = 48 */
(PID.TID 0000.0001)      . . .
(PID.TID 0000.0001)                 4.140261706871251E+03,      /* I = 65 */
(PID.TID 0000.0001)                 4.140261706869354E+03,      /* I = 66 */
(PID.TID 0000.0001)                 4.140261706870619E+03,      /* I = 67 */
(PID.TID 0000.0001)                 4.140261706868722E+03,      /* I = 68 */
(PID.TID 0000.0001)                 4.140261706869354E+03,      /* I = 69 */
(PID.TID 0000.0001)                 4.140261706872515E+03,      /* I = 70 */
(PID.TID 0000.0001)      . . .
(PID.TID 0000.0001)                 4.140261706871883E+03,      /* I = 88 */
(PID.TID 0000.0001)                 4.140261706870619E+03,      /* I = 89 */
(PID.TID 0000.0001)                 4.140261706868090E+03       /* I = 90 */
(PID.TID 0000.0001)     ;
(PID.TID 0000.0001) dxV =  /* dxV(1,:,1,:) ( units: m ) */
(PID.TID 0000.0001)                 4.140261706869354E+03,      /* J =  1 */
(PID.TID 0000.0001)                 4.139019569774803E+03,      /* J =  2 */
(PID.TID 0000.0001)                 4.137776322958875E+03,      /* J =  3 */
(PID.TID 0000.0001)      . . .
(PID.TID 0000.0001)                 4.115210417224628E+03,      /* J = 21 */
(PID.TID 0000.0001)                 4.113946468945782E+03,      /* J = 22 */
(PID.TID 0000.0001)                 4.112681451283814E+03,      /* J = 23 */
(PID.TID 0000.0001)                 4.111415366257961E+03,      /* J = 24 */
(PID.TID 0000.0001)                 4.110148215889871E+03,      /* J = 25 */
(PID.TID 0000.0001)                 4.108880002189793E+03,      /* J = 26 */
(PID.TID 0000.0001)      . . .
(PID.TID 0000.0001)                 4.087159633307177E+03,      /* J = 43 */
(PID.TID 0000.0001)                 4.085872624353333E+03,      /* J = 44 */
(PID.TID 0000.0001)                 4.084584590354409E+03,      /* J = 45 */
(PID.TID 0000.0001)                 4.083295533329885E+03,      /* J = 46 */
(PID.TID 0000.0001)                 4.082005455287795E+03,      /* J = 47 */
(PID.TID 0000.0001)                 4.080714358242170E+03,      /* J = 48 */
(PID.TID 0000.0001)      . . .
(PID.TID 0000.0001)                 4.058611750065706E+03,      /* J = 65 */
(PID.TID 0000.0001)                 4.057302654844237E+03,      /* J = 66 */
(PID.TID 0000.0001)                 4.055992578806316E+03,      /* J = 67 */
(PID.TID 0000.0001)                 4.054681523963785E+03,      /* J = 68 */
(PID.TID 0000.0001)                 4.053369492320704E+03,      /* J = 69 */
(PID.TID 0000.0001)                 4.052056485885720E+03,      /* J = 70 */
(PID.TID 0000.0001)      . . .
(PID.TID 0000.0001)                 4.028257965154151E+03,      /* J = 88 */
(PID.TID 0000.0001)                 4.026926818301361E+03,      /* J = 89 */
(PID.TID 0000.0001)                 4.025594736689364E+03       /* J = 90 */
(PID.TID 0000.0001)     ;
(PID.TID 0000.0001) dyU =  /* dyU(:,1,:,1) ( units: m ) */
(PID.TID 0000.0001)                 3.806342552013452E+03,      /* I =  1 */
(PID.TID 0000.0001)                 3.806342552013806E+03,      /* I =  2 */
(PID.TID 0000.0001)                 3.806342552013099E+03,      /* I =  3 */
(PID.TID 0000.0001)                 3.806342552013806E+03,      /* I =  4 */
(PID.TID 0000.0001)     3 @  3.806342552013452E+03,             /* I =  5:  7 */
(PID.TID 0000.0001)     2 @  3.806342552013806E+03,             /* I =  8:  9 */
(PID.TID 0000.0001)     2 @  3.806342552013452E+03,             /* I = 10: 11 */
(PID.TID 0000.0001)                 3.806342552013806E+03,      /* I = 12 */
(PID.TID 0000.0001)     2 @  3.806342552014160E+03,             /* I = 13: 14 */
(PID.TID 0000.0001)                 3.806342552013099E+03,      /* I = 15 */
(PID.TID 0000.0001)                 3.806342552013806E+03,      /* I = 16 */
(PID.TID 0000.0001)                 3.806342552013452E+03,      /* I = 17 */
(PID.TID 0000.0001)     2 @  3.806342552013806E+03,             /* I = 18: 19 */
(PID.TID 0000.0001)                 3.806342552013452E+03,      /* I = 20 */
(PID.TID 0000.0001)                 3.806342552013806E+03,      /* I = 21 */
(PID.TID 0000.0001)                 3.806342552013452E+03,      /* I = 22 */
(PID.TID 0000.0001)                 3.806342552013806E+03,      /* I = 23 */
(PID.TID 0000.0001)     3 @  3.806342552013452E+03,             /* I = 24: 26 */
(PID.TID 0000.0001)                 3.806342552013806E+03,      /* I = 27 */
(PID.TID 0000.0001)                 3.806342552013099E+03,      /* I = 28 */
(PID.TID 0000.0001)                 3.806342552013806E+03,      /* I = 29 */
(PID.TID 0000.0001)                 3.806342552013452E+03,      /* I = 30 */
(PID.TID 0000.0001)     2 @  3.806342552013806E+03,             /* I = 31: 32 */
(PID.TID 0000.0001)                 3.806342552013452E+03,      /* I = 33 */
(PID.TID 0000.0001)                 3.806342552013806E+03,      /* I = 34 */
(PID.TID 0000.0001)                 3.806342552014160E+03,      /* I = 35 */
(PID.TID 0000.0001)                 3.806342552013453E+03,      /* I = 36 */
(PID.TID 0000.0001)                 3.806342552013806E+03,      /* I = 37 */
(PID.TID 0000.0001)                 3.806342552013452E+03,      /* I = 38 */
(PID.TID 0000.0001)                 3.806342552013806E+03,      /* I = 39 */
(PID.TID 0000.0001)     2 @  3.806342552013452E+03,             /* I = 40: 41 */
(PID.TID 0000.0001)                 3.806342552014160E+03,      /* I = 42 */
(PID.TID 0000.0001)                 3.806342552013100E+03,      /* I = 43 */
(PID.TID 0000.0001)                 3.806342552013452E+03,      /* I = 44 */
(PID.TID 0000.0001)                 3.806342552013099E+03,      /* I = 45 */
(PID.TID 0000.0001)     2 @  3.806342552013806E+03,             /* I = 46: 47 */
(PID.TID 0000.0001)                 3.806342552013452E+03,      /* I = 48 */
(PID.TID 0000.0001)                 3.806342552013806E+03,      /* I = 49 */
(PID.TID 0000.0001)                 3.806342552013452E+03,      /* I = 50 */
(PID.TID 0000.0001)                 3.806342552013099E+03,      /* I = 51 */
(PID.TID 0000.0001)     2 @  3.806342552013452E+03,             /* I = 52: 53 */
(PID.TID 0000.0001)                 3.806342552013099E+03,      /* I = 54 */
(PID.TID 0000.0001)     2 @  3.806342552013806E+03,             /* I = 55: 56 */
(PID.TID 0000.0001)                 3.806342552013453E+03,      /* I = 57 */
(PID.TID 0000.0001)                 3.806342552013452E+03,      /* I = 58 */
(PID.TID 0000.0001)                 3.806342552013099E+03,      /* I = 59 */
(PID.TID 0000.0001)                 3.806342552014160E+03,      /* I = 60 */
(PID.TID 0000.0001)                 3.806342552013452E+03,      /* I = 61 */
(PID.TID 0000.0001)                 3.806342552014160E+03,      /* I = 62 */
(PID.TID 0000.0001)     3 @  3.806342552013806E+03,             /* I = 63: 65 */
(PID.TID 0000.0001)     4 @  3.806342552013452E+03,             /* I = 66: 69 */
(PID.TID 0000.0001)                 3.806342552013806E+03,      /* I = 70 */
(PID.TID 0000.0001)     2 @  3.806342552014160E+03,             /* I = 71: 72 */
(PID.TID 0000.0001)                 3.806342552013099E+03,      /* I = 73 */
(PID.TID 0000.0001)     2 @  3.806342552013452E+03,             /* I = 74: 75 */
(PID.TID 0000.0001)                 3.806342552014160E+03,      /* I = 76 */
(PID.TID 0000.0001)     2 @  3.806342552013452E+03,             /* I = 77: 78 */
(PID.TID 0000.0001)     4 @  3.806342552013806E+03,             /* I = 79: 82 */
(PID.TID 0000.0001)                 3.806342552013452E+03,      /* I = 83 */
(PID.TID 0000.0001)     7 @  3.806342552013806E+03              /* I = 84: 90 */
(PID.TID 0000.0001)     ;
(PID.TID 0000.0001) dyU =  /* dyU(1,:,1,:) ( units: m ) */
(PID.TID 0000.0001)                 3.806342552013452E+03,      /* J =  1 */
(PID.TID 0000.0001)                 3.805218357834617E+03,      /* J =  2 */
(PID.TID 0000.0001)                 3.804093354393367E+03,      /* J =  3 */
(PID.TID 0000.0001)      . . .
(PID.TID 0000.0001)                 3.783706905138116E+03,      /* J = 21 */
(PID.TID 0000.0001)                 3.782566858436945E+03,      /* J = 22 */
(PID.TID 0000.0001)                 3.781426037490259E+03,      /* J = 23 */
(PID.TID 0000.0001)                 3.780284444041687E+03,      /* J = 24 */
(PID.TID 0000.0001)                 3.779142079841227E+03,      /* J = 25 */
(PID.TID 0000.0001)                 3.777998946644533E+03,      /* J = 26 */
(PID.TID 0000.0001)      . . .
(PID.TID 0000.0001)                 3.758449718277056E+03,      /* J = 43 */
(PID.TID 0000.0001)                 3.757293041781874E+03,      /* J = 44 */
(PID.TID 0000.0001)                 3.756135629463300E+03,      /* J = 45 */
(PID.TID 0000.0001)                 3.754977483058600E+03,      /* J = 46 */
(PID.TID 0000.0001)                 3.753818604315650E+03,      /* J = 47 */
(PID.TID 0000.0001)                 3.752658994974545E+03,      /* J = 48 */
(PID.TID 0000.0001)      . . .
(PID.TID 0000.0001)                 3.732835541373976E+03,      /* J = 65 */
(PID.TID 0000.0001)                 3.731663078812468E+03,      /* J = 66 */
(PID.TID 0000.0001)                 3.730489918689510E+03,      /* J = 67 */
(PID.TID 0000.0001)                 3.729316062740600E+03,      /* J = 68 */
(PID.TID 0000.0001)                 3.728141512695578E+03,      /* J = 69 */
(PID.TID 0000.0001)                 3.726966270292771E+03,      /* J = 70 */
(PID.TID 0000.0001)      . . .
(PID.TID 0000.0001)                 3.705695487141901E+03,      /* J = 88 */
(PID.TID 0000.0001)                 3.704507418675990E+03,      /* J = 89 */
(PID.TID 0000.0001)                 3.703318692419405E+03       /* J = 90 */
(PID.TID 0000.0001)     ;
(PID.TID 0000.0001) rA  =  /* rA (:,1,:,1) ( units: m^2 ) */
(PID.TID 0000.0001)                 1.575456447853378E+07,      /* I =  1 */
(PID.TID 0000.0001)                 1.575456449655355E+07,      /* I =  2 */
(PID.TID 0000.0001)                 1.575456450556343E+07,      /* I =  3 */
(PID.TID 0000.0001)      . . .
(PID.TID 0000.0001)                 1.575456449655355E+07,      /* I = 21 */
(PID.TID 0000.0001)                 1.575456456863260E+07,      /* I = 22 */
(PID.TID 0000.0001)                 1.575456452358319E+07,      /* I = 23 */
(PID.TID 0000.0001)                 1.575456446051402E+07,      /* I = 24 */
(PID.TID 0000.0001)                 1.575456459566225E+07,      /* I = 25 */
(PID.TID 0000.0001)                 1.575456455962272E+07,      /* I = 26 */
(PID.TID 0000.0001)      . . .
(PID.TID 0000.0001)                 1.575456446051402E+07,      /* I = 43 */
(PID.TID 0000.0001)                 1.575456445150414E+07,      /* I = 44 */
(PID.TID 0000.0001)                 1.575456439744485E+07,      /* I = 45 */
(PID.TID 0000.0001)                 1.575456449655355E+07,      /* I = 46 */
(PID.TID 0000.0001)                 1.575456447853378E+07,      /* I = 47 */
(PID.TID 0000.0001)                 1.575456454160295E+07,      /* I = 48 */
(PID.TID 0000.0001)      . . .
(PID.TID 0000.0001)                 1.575456451457331E+07,      /* I = 65 */
(PID.TID 0000.0001)                 1.575456456863260E+07,      /* I = 66 */
(PID.TID 0000.0001)                 1.575456456863260E+07,      /* I = 67 */
(PID.TID 0000.0001)                 1.575456453259307E+07,      /* I = 68 */
(PID.TID 0000.0001)                 1.575456457764248E+07,      /* I = 69 */
(PID.TID 0000.0001)                 1.575456455962272E+07,      /* I = 70 */
(PID.TID 0000.0001)      . . .
(PID.TID 0000.0001)                 1.575456452358319E+07,      /* I = 88 */
(PID.TID 0000.0001)                 1.575456450556343E+07,      /* I = 89 */
(PID.TID 0000.0001)                 1.575456446051402E+07       /* I = 90 */
(PID.TID 0000.0001)     ;
(PID.TID 0000.0001) rA  =  /* rA (1,:,1,:) ( units: m^2 ) */
(PID.TID 0000.0001)                 1.575456447853378E+07,      /* J =  1 */
(PID.TID 0000.0001)                 1.574518105611758E+07,      /* J =  2 */
(PID.TID 0000.0001)                 1.573579285846405E+07,      /* J =  3 */
(PID.TID 0000.0001)      . . .
(PID.TID 0000.0001)                 1.556601453942070E+07,      /* J = 21 */
(PID.TID 0000.0001)                 1.555653981987293E+07,      /* J = 22 */
(PID.TID 0000.0001)                 1.554706076657204E+07,      /* J = 23 */
(PID.TID 0000.0001)                 1.553757746961686E+07,      /* J = 24 */
(PID.TID 0000.0001)                 1.552808983890856E+07,      /* J = 25 */
(PID.TID 0000.0001)                 1.551859794652621E+07,      /* J = 26 */
(PID.TID 0000.0001)      . . .
(PID.TID 0000.0001)                 1.535660308411142E+07,      /* J = 43 */
(PID.TID 0000.0001)                 1.534703796842025E+07,      /* J = 44 */
(PID.TID 0000.0001)                 1.533746891541077E+07,      /* J = 45 */
(PID.TID 0000.0001)                 1.532789606023120E+07,      /* J = 46 */
(PID.TID 0000.0001)                 1.531831934882224E+07,      /* J = 47 */
(PID.TID 0000.0001)                 1.530873887128272E+07,      /* J = 48 */
(PID.TID 0000.0001)      . . .
(PID.TID 0000.0001)                 1.514530891490604E+07,      /* J = 65 */
(PID.TID 0000.0001)                 1.513566350314890E+07,      /* J = 66 */
(PID.TID 0000.0001)                 1.512601464961694E+07,      /* J = 67 */
(PID.TID 0000.0001)                 1.511636259757696E+07,      /* J = 68 */
(PID.TID 0000.0001)                 1.510670712178192E+07,      /* J = 69 */
(PID.TID 0000.0001)                 1.509704822223184E+07,      /* J = 70 */
(PID.TID 0000.0001)      . . .
(PID.TID 0000.0001)                 1.492263931952298E+07,      /* J = 88 */
(PID.TID 0000.0001)                 1.491292076554595E+07,      /* J = 89 */
(PID.TID 0000.0001)                 1.490319933741666E+07       /* J = 90 */
(PID.TID 0000.0001)     ;
(PID.TID 0000.0001) rAw =  /* rAw(:,1,:,1) ( units: m^2 ) */
(PID.TID 0000.0001)                 1.575456449655355E+07,      /* I =  1 */
(PID.TID 0000.0001)                 1.575456447853378E+07,      /* I =  2 */
(PID.TID 0000.0001)                 1.575456447853378E+07,      /* I =  3 */
(PID.TID 0000.0001)      . . .
(PID.TID 0000.0001)                 1.575456441546461E+07,      /* I = 21 */
(PID.TID 0000.0001)                 1.575456455061284E+07,      /* I = 22 */
(PID.TID 0000.0001)                 1.575456453259308E+07,      /* I = 23 */
(PID.TID 0000.0001)                 1.575456455061284E+07,      /* I = 24 */
(PID.TID 0000.0001)                 1.575456446952390E+07,      /* I = 25 */
(PID.TID 0000.0001)                 1.575456458665236E+07,      /* I = 26 */
(PID.TID 0000.0001)      . . .
(PID.TID 0000.0001)                 1.575456441546461E+07,      /* I = 43 */
(PID.TID 0000.0001)                 1.575456446051402E+07,      /* I = 44 */
(PID.TID 0000.0001)                 1.575456444249426E+07,      /* I = 45 */
(PID.TID 0000.0001)                 1.575456440645473E+07,      /* I = 46 */
(PID.TID 0000.0001)                 1.575456450556343E+07,      /* I = 47 */
(PID.TID 0000.0001)                 1.575456456863260E+07,      /* I = 48 */
(PID.TID 0000.0001)      . . .
(PID.TID 0000.0001)                 1.575456451457331E+07,      /* I = 65 */
(PID.TID 0000.0001)                 1.575456456863260E+07,      /* I = 66 */
(PID.TID 0000.0001)                 1.575456457764248E+07,      /* I = 67 */
(PID.TID 0000.0001)                 1.575456455962272E+07,      /* I = 68 */
(PID.TID 0000.0001)                 1.575456453259308E+07,      /* I = 69 */
(PID.TID 0000.0001)                 1.575456455061284E+07,      /* I = 70 */
(PID.TID 0000.0001)      . . .
(PID.TID 0000.0001)                 1.575456454160296E+07,      /* I = 88 */
(PID.TID 0000.0001)                 1.575456450556343E+07,      /* I = 89 */
(PID.TID 0000.0001)                 1.575456448754366E+07       /* I = 90 */
(PID.TID 0000.0001)     ;
(PID.TID 0000.0001) rAw =  /* rAw(1,:,1,:) ( units: m^2 ) */
(PID.TID 0000.0001)                 1.575456449655355E+07,      /* J =  1 */
(PID.TID 0000.0001)                 1.574518110116698E+07,      /* J =  2 */
(PID.TID 0000.0001)                 1.573579285846405E+07,      /* J =  3 */
(PID.TID 0000.0001)      . . .
(PID.TID 0000.0001)                 1.556601457546023E+07,      /* J = 21 */
(PID.TID 0000.0001)                 1.555653976581364E+07,      /* J = 22 */
(PID.TID 0000.0001)                 1.554706072152263E+07,      /* J = 23 */
(PID.TID 0000.0001)                 1.553757753268603E+07,      /* J = 24 */
(PID.TID 0000.0001)                 1.552808989296786E+07,      /* J = 25 */
(PID.TID 0000.0001)                 1.551859796454598E+07,      /* J = 26 */
(PID.TID 0000.0001)      . . .
(PID.TID 0000.0001)                 1.535660306609166E+07,      /* J = 43 */
(PID.TID 0000.0001)                 1.534703794139061E+07,      /* J = 44 */
(PID.TID 0000.0001)                 1.533746892442065E+07,      /* J = 45 */
(PID.TID 0000.0001)                 1.532789599716202E+07,      /* J = 46 */
(PID.TID 0000.0001)                 1.531831930377283E+07,      /* J = 47 */
(PID.TID 0000.0001)                 1.530873889831237E+07,      /* J = 48 */
(PID.TID 0000.0001)      . . .
(PID.TID 0000.0001)                 1.514530881579734E+07,      /* J = 65 */
(PID.TID 0000.0001)                 1.513566350314890E+07,      /* J = 66 */
(PID.TID 0000.0001)                 1.512601465862682E+07,      /* J = 67 */
(PID.TID 0000.0001)                 1.511636260658684E+07,      /* J = 68 */
(PID.TID 0000.0001)                 1.510670709475228E+07,      /* J = 69 */
(PID.TID 0000.0001)                 1.509704819520219E+07,      /* J = 70 */
(PID.TID 0000.0001)      . . .
(PID.TID 0000.0001)                 1.492263937358227E+07,      /* J = 88 */
(PID.TID 0000.0001)                 1.491292075653607E+07,      /* J = 89 */
(PID.TID 0000.0001)                 1.490319925632773E+07       /* J = 90 */
(PID.TID 0000.0001)     ;
(PID.TID 0000.0001) rAs =  /* rAs(:,1,:,1) ( units: m^2 ) */
(PID.TID 0000.0001)                 1.575925439227048E+07,      /* I =  1 */
(PID.TID 0000.0001)                 1.575925435623096E+07,      /* I =  2 */
(PID.TID 0000.0001)                 1.575925432019143E+07,      /* I =  3 */
(PID.TID 0000.0001)      . . .
(PID.TID 0000.0001)                 1.575925436524084E+07,      /* I = 21 */
(PID.TID 0000.0001)                 1.575925442831001E+07,      /* I = 22 */
(PID.TID 0000.0001)                 1.575925441029024E+07,      /* I = 23 */
(PID.TID 0000.0001)                 1.575925440128037E+07,      /* I = 24 */
(PID.TID 0000.0001)                 1.575925441930013E+07,      /* I = 25 */
(PID.TID 0000.0001)                 1.575925442831001E+07,      /* I = 26 */
(PID.TID 0000.0001)      . . .
(PID.TID 0000.0001)                 1.575925445533966E+07,      /* I = 43 */
(PID.TID 0000.0001)                 1.575925438326060E+07,      /* I = 44 */
(PID.TID 0000.0001)                 1.575925433821119E+07,      /* I = 45 */
(PID.TID 0000.0001)                 1.575925443731989E+07,      /* I = 46 */
(PID.TID 0000.0001)                 1.575925449137918E+07,      /* I = 47 */
(PID.TID 0000.0001)                 1.575925450939894E+07,      /* I = 48 */
(PID.TID 0000.0001)      . . .
(PID.TID 0000.0001)                 1.575925443731989E+07,      /* I = 65 */
(PID.TID 0000.0001)                 1.575925452741871E+07,      /* I = 66 */
(PID.TID 0000.0001)                 1.575925447335942E+07,      /* I = 67 */
(PID.TID 0000.0001)                 1.575925444632977E+07,      /* I = 68 */
(PID.TID 0000.0001)                 1.575925437425072E+07,      /* I = 69 */
(PID.TID 0000.0001)                 1.575925442831001E+07,      /* I = 70 */
(PID.TID 0000.0001)      . . .
(PID.TID 0000.0001)                 1.575925442831001E+07,      /* I = 88 */
(PID.TID 0000.0001)                 1.575925438326060E+07,      /* I = 89 */
(PID.TID 0000.0001)                 1.575925430217167E+07       /* I = 90 */
(PID.TID 0000.0001)     ;
(PID.TID 0000.0001) rAs =  /* rAs(1,:,1,:) ( units: m^2 ) */
(PID.TID 0000.0001)                 1.575925439227048E+07,      /* J =  1 */
(PID.TID 0000.0001)                 1.574987336648281E+07,      /* J =  2 */
(PID.TID 0000.0001)                 1.574048753842818E+07,      /* J =  3 */
(PID.TID 0000.0001)      . . .
(PID.TID 0000.0001)                 1.557075023236647E+07,      /* J = 21 */
(PID.TID 0000.0001)                 1.556127768420019E+07,      /* J = 22 */
(PID.TID 0000.0001)                 1.555180086534997E+07,      /* J = 23 */
(PID.TID 0000.0001)                 1.554231966769724E+07,      /* J = 24 */
(PID.TID 0000.0001)                 1.553283419936056E+07,      /* J = 25 */
(PID.TID 0000.0001)                 1.552334437024112E+07,      /* J = 26 */
(PID.TID 0000.0001)      . . .
(PID.TID 0000.0001)                 1.536138419587098E+07,      /* J = 43 */
(PID.TID 0000.0001)                 1.535182105334392E+07,      /* J = 44 */
(PID.TID 0000.0001)                 1.534225391042936E+07,      /* J = 45 */
(PID.TID 0000.0001)                 1.533268290227554E+07,      /* J = 46 */
(PID.TID 0000.0001)                 1.532310822709986E+07,      /* J = 47 */
(PID.TID 0000.0001)                 1.531352957856633E+07,      /* J = 48 */
(PID.TID 0000.0001)      . . .
(PID.TID 0000.0001)                 1.515013023776777E+07,      /* J = 65 */
(PID.TID 0000.0001)                 1.514048662798697E+07,      /* J = 66 */
(PID.TID 0000.0001)                 1.513083956742147E+07,      /* J = 67 */
(PID.TID 0000.0001)                 1.512118902003174E+07,      /* J = 68 */
(PID.TID 0000.0001)                 1.511153524710436E+07,      /* J = 69 */
(PID.TID 0000.0001)                 1.510187814953061E+07,      /* J = 70 */
(PID.TID 0000.0001)      . . .
(PID.TID 0000.0001)                 1.492749759190968E+07,      /* J = 88 */
(PID.TID 0000.0001)                 1.491778042545444E+07,      /* J = 89 */
(PID.TID 0000.0001)                 1.490806039385681E+07       /* J = 90 */
(PID.TID 0000.0001)     ;
(PID.TID 0000.0001) globalArea = /* Integrated horizontal Area (m^2) */
(PID.TID 0000.0001)                 1.130146465161621E+13
(PID.TID 0000.0001)     ;
(PID.TID 0000.0001) hasWetCSCorners = /* Domain contains CS corners (True/False) */
(PID.TID 0000.0001)                   F
(PID.TID 0000.0001)     ;
(PID.TID 0000.0001) // =======================================================
(PID.TID 0000.0001) // End of Model config. summary
(PID.TID 0000.0001) // =======================================================
(PID.TID 0000.0001) 
(PID.TID 0000.0001) == Packages configuration : Check & print summary ==
(PID.TID 0000.0001) 
(PID.TID 0000.0001) OBCS_CHECK: #define ALLOW_OBCS
(PID.TID 0000.0001) OBCS_CHECK: start summary:
(PID.TID 0000.0001) useOBCSprescribe = /* prescribe OB values */
(PID.TID 0000.0001)                   T
(PID.TID 0000.0001)     ;
(PID.TID 0000.0001) useOBCSbalance = /* balance the flow through OB */
(PID.TID 0000.0001)                   T
(PID.TID 0000.0001)     ;
(PID.TID 0000.0001) OBCS_balanceFacN = /* Northern OB Factor for balancing OB flow [-] */
(PID.TID 0000.0001)                -1.000000000000000E+00
(PID.TID 0000.0001)     ;
(PID.TID 0000.0001) OBCS_balanceFacS = /* Southern OB Factor for balancing OB flow [-] */
(PID.TID 0000.0001)                -1.000000000000000E+00
(PID.TID 0000.0001)     ;
(PID.TID 0000.0001) OBCS_balanceFacE = /* Eastern  OB Factor for balancing OB flow [-] */
(PID.TID 0000.0001)                -1.000000000000000E+00
(PID.TID 0000.0001)     ;
(PID.TID 0000.0001) OBCS_balanceFacW = /* Western  OB Factor for balancing OB flow [-] */
(PID.TID 0000.0001)                -1.000000000000000E+00
(PID.TID 0000.0001)     ;
(PID.TID 0000.0001) OBCS_uvApplyFac = /* Factor to apply to U,V 2nd column/row */
(PID.TID 0000.0001)                 1.000000000000000E+00
(PID.TID 0000.0001)     ;
(PID.TID 0000.0001) OBCS_u1_adv_T = /* Temp uses upwind adv-scheme @ OB */
(PID.TID 0000.0001)                       1
(PID.TID 0000.0001)     ;
(PID.TID 0000.0001) OBCS_u1_adv_S = /* Salt uses upwind adv-scheme @ OB */
(PID.TID 0000.0001)                       1
(PID.TID 0000.0001)     ;
(PID.TID 0000.0001) OBCS_monitorFreq = /* monitor output frequency [s] */
(PID.TID 0000.0001)                 2.400000000000000E+02
(PID.TID 0000.0001)     ;
(PID.TID 0000.0001) OBCS_monSelect = /* select group of variables to monitor */
(PID.TID 0000.0001)                       3
(PID.TID 0000.0001)     ;
(PID.TID 0000.0001) useOBCStides = /* apply tidal forcing through OB */
(PID.TID 0000.0001)                   T
(PID.TID 0000.0001)     ;
(PID.TID 0000.0001) tidalPeriod = /* (s) */
(PID.TID 0000.0001)                 4.471416500000000E+04,      /* I =  1 */
(PID.TID 0000.0001)                 4.320000100000000E+04,      /* I =  2 */
(PID.TID 0000.0001)                 4.557005400000000E+04,      /* I =  3 */
(PID.TID 0000.0001)                 4.308205000000000E+04,      /* I =  4 */
(PID.TID 0000.0001)                 8.616407700000000E+04,      /* I =  5 */
(PID.TID 0000.0001)                 9.294963600000000E+04,      /* I =  6 */
(PID.TID 0000.0001)                 8.663720000000000E+04,      /* I =  7 */
(PID.TID 0000.0001)                 9.672608600000000E+04,      /* I =  8 */
(PID.TID 0000.0001)                 1.180295546000000E+06,      /* I =  9 */
(PID.TID 0000.0001)                 2.380715864000000E+06,      /* I = 10 */
(PID.TID 0000.0001)                 2.235709100000000E+04,      /* I = 11 */
(PID.TID 0000.0001)                 2.197202200000000E+04,      /* I = 12 */
(PID.TID 0000.0001)                 2.256904200000000E+04       /* I = 13 */
(PID.TID 0000.0001)     ;
(PID.TID 0000.0001) OB_indexNone = /* null value for OB index (i.e. no OB) */
(PID.TID 0000.0001)                     -99
(PID.TID 0000.0001)     ;
(PID.TID 0000.0001) ======== Tile bi=   1 , bj=   1 ========
(PID.TID 0000.0001)  OB_Jn = /* Northern OB local indices */
(PID.TID 0000.0001)   106 @      -99                            /* I = -7: 98 */
(PID.TID 0000.0001)  OB_Js = /* Southern OB local indices */
(PID.TID 0000.0001)   106 @        8                            /* I = -7: 98 */
(PID.TID 0000.0001)  OB_Ie = /* Eastern OB local indices */
(PID.TID 0000.0001)   106 @      -99                            /* J = -7: 98 */
(PID.TID 0000.0001)  OB_Iw = /* Western OB local indices */
(PID.TID 0000.0001)   106 @      -99                            /* J = -7: 98 */
(PID.TID 0000.0001) OBCS_CHECK: end summary.
(PID.TID 0000.0001) OBCS_CHECK: set-up OK
(PID.TID 0000.0001) OBCS_CHECK: check Inside Mask and OB locations: OK
(PID.TID 0000.0001) KPP_CHECK: #define ALLOW_KPP
(PID.TID 0000.0001)  kpp_freq = /* frequency of KPP calculation */
(PID.TID 0000.0001)                 2.400000000000000E+02
(PID.TID 0000.0001)     ;
(PID.TID 0000.0001) KPP_ghatUseTotalDiffus= /* non-local term fct of total diffus */
(PID.TID 0000.0001)                   F
(PID.TID 0000.0001)     ;
(PID.TID 0000.0001) KPPuseDoubleDiff = /* include double diffusive contrib */
(PID.TID 0000.0001)                   F
(PID.TID 0000.0001)     ;
(PID.TID 0000.0001) LimitHblStable = /* limits depth of hbl if stable cond.*/
(PID.TID 0000.0001)                   T
(PID.TID 0000.0001)     ;
(PID.TID 0000.0001)  minKPPhbl = /* minimum KPPhbl value [m] */
(PID.TID 0000.0001)                 2.500000000000000E+00
(PID.TID 0000.0001)     ;
(PID.TID 0000.0001)  epsln     = /* constant [-] */
(PID.TID 0000.0001)                 9.999999999999999E-21
(PID.TID 0000.0001)     ;
(PID.TID 0000.0001)  phepsi    = /* constant [-] */
(PID.TID 0000.0001)                 1.000000000000000E-10
(PID.TID 0000.0001)     ;
(PID.TID 0000.0001)  epsilon   = /* constant [-] */
(PID.TID 0000.0001)                 1.000000000000000E-01
(PID.TID 0000.0001)     ;
(PID.TID 0000.0001)  vonk      = /* Von Karmans constant [-] */
(PID.TID 0000.0001)                 4.000000000000000E-01
(PID.TID 0000.0001)     ;
(PID.TID 0000.0001)  dB_dz     = /* maximum N^2 in mixed layer [s^-2] */
(PID.TID 0000.0001)                 5.200000000000000E-05
(PID.TID 0000.0001)     ;
(PID.TID 0000.0001)  conc1     = /* scalar constant [-] */
(PID.TID 0000.0001)                 5.000000000000000E+00
(PID.TID 0000.0001)     ;
(PID.TID 0000.0001)  conam     = /* scalar constant [-] */
(PID.TID 0000.0001)                 1.257000000000000E+00
(PID.TID 0000.0001)     ;
(PID.TID 0000.0001)  concm     = /* scalar constant [-] */
(PID.TID 0000.0001)                 8.380000000000001E+00
(PID.TID 0000.0001)     ;
(PID.TID 0000.0001)  conc2     = /* scalar constant [-] */
(PID.TID 0000.0001)                 1.600000000000000E+01
(PID.TID 0000.0001)     ;
(PID.TID 0000.0001)  conas     = /* scalar constant [-] */
(PID.TID 0000.0001)                -2.886000000000000E+01
(PID.TID 0000.0001)     ;
(PID.TID 0000.0001)  concs     = /* scalar constant [-] */
(PID.TID 0000.0001)                 9.895999999999999E+01
(PID.TID 0000.0001)     ;
(PID.TID 0000.0001)  conc3     = /* scalar constant [-] */
(PID.TID 0000.0001)                 1.600000000000000E+01
(PID.TID 0000.0001)     ;
(PID.TID 0000.0001)  zetam     = /* scalar constant [-] */
(PID.TID 0000.0001)                -2.000000000000000E-01
(PID.TID 0000.0001)     ;
(PID.TID 0000.0001)  zetas     = /* scalar constant [-] */
(PID.TID 0000.0001)                -1.000000000000000E+00
(PID.TID 0000.0001)     ;
(PID.TID 0000.0001)  Ricr      = /* critical bulk Richardson Number [-] */
(PID.TID 0000.0001)                 3.000000000000000E-01
(PID.TID 0000.0001)     ;
(PID.TID 0000.0001)  cekman    = /* coeff for Ekman depth [-] */
(PID.TID 0000.0001)                 7.000000000000000E-01
(PID.TID 0000.0001)     ;
(PID.TID 0000.0001)  cmonob    = /* coeff for Monin-Obukhov depth [-] */
(PID.TID 0000.0001)                 1.000000000000000E+00
(PID.TID 0000.0001)     ;
(PID.TID 0000.0001)  concv     = /* buoyancy freq ratio [-] */
(PID.TID 0000.0001)                 1.800000000000000E+00
(PID.TID 0000.0001)     ;
(PID.TID 0000.0001)  hbf       = /* solar radiation depth ratio [-] */
(PID.TID 0000.0001)                 1.000000000000000E+00
(PID.TID 0000.0001)     ;
(PID.TID 0000.0001)  zmin      = /* minimum for zehat in table [m3/s3] */
(PID.TID 0000.0001)                -4.000000000000000E-07
(PID.TID 0000.0001)     ;
(PID.TID 0000.0001)  zmax      = /* maximum for zehat in table [m3/s3] */
(PID.TID 0000.0001)                 0.000000000000000E+00
(PID.TID 0000.0001)     ;
(PID.TID 0000.0001)  umin      = /* minimum for ustar in table [m/s] */
(PID.TID 0000.0001)                 0.000000000000000E+00
(PID.TID 0000.0001)     ;
(PID.TID 0000.0001)  umax      = /* maximum for ustar in table [m/s] */
(PID.TID 0000.0001)                 4.000000000000000E-02
(PID.TID 0000.0001)     ;
(PID.TID 0000.0001) num_v_smooth_Ri = /* number of vertical smoothing */
(PID.TID 0000.0001)                       0
(PID.TID 0000.0001)     ;
(PID.TID 0000.0001)  Riinfty   = /* shear instability Ri number limit [-] */
(PID.TID 0000.0001)                 7.000000000000000E-01
(PID.TID 0000.0001)     ;
(PID.TID 0000.0001)  BVSQcon   = /* Brunt-Vaisala squared (=N^2) [s^-2] */
(PID.TID 0000.0001)                -2.000000000000000E-05
(PID.TID 0000.0001)     ;
(PID.TID 0000.0001)  difm0     = /* max viscosity from shear instab. [m2/s] */
(PID.TID 0000.0001)                 5.000000000000000E-03
(PID.TID 0000.0001)     ;
(PID.TID 0000.0001)  difs0     = /* max diffusiv. from shear instab. [m2/s] */
(PID.TID 0000.0001)                 5.000000000000000E-03
(PID.TID 0000.0001)     ;
(PID.TID 0000.0001)  dift0     = /* max diffusiv. from shear instab. [m2/s] */
(PID.TID 0000.0001)                 5.000000000000000E-03
(PID.TID 0000.0001)     ;
(PID.TID 0000.0001)  difmcon   = /* convective viscosity [m2/s] */
(PID.TID 0000.0001)                 1.000000000000000E-01
(PID.TID 0000.0001)     ;
(PID.TID 0000.0001)  difscon   = /* convective diffusiv. [m2/s] */
(PID.TID 0000.0001)                 1.000000000000000E-01
(PID.TID 0000.0001)     ;
(PID.TID 0000.0001)  diftcon   = /* convective diffusiv. [m2/s] */
(PID.TID 0000.0001)                 1.000000000000000E-01
(PID.TID 0000.0001)     ;
(PID.TID 0000.0001)  Rrho0     = /* double diffusion density ratio [-] */
(PID.TID 0000.0001)                 1.900000000000000E+00
(PID.TID 0000.0001)     ;
(PID.TID 0000.0001)  dsfmax    = /* max diffusiv. for salt fingering [m2/s] */
(PID.TID 0000.0001)                 1.000000000000000E-02
(PID.TID 0000.0001)     ;
(PID.TID 0000.0001)  cstar     = /* coeff for non-locak transport [-] */
(PID.TID 0000.0001)                 1.000000000000000E+01
(PID.TID 0000.0001)     ;
(PID.TID 0000.0001) KPPwriteState = /* write KPP fields to file */
(PID.TID 0000.0001)                   F
(PID.TID 0000.0001)     ;
(PID.TID 0000.0001)  kpp_dumpFreq = /* dump freq of KPP output */
(PID.TID 0000.0001)                 0.000000000000000E+00
(PID.TID 0000.0001)     ;
(PID.TID 0000.0001)  kpp_taveFreq = /* time-averaging freq of KPP output */
(PID.TID 0000.0001)                 0.000000000000000E+00
(PID.TID 0000.0001)     ;
(PID.TID 0000.0001) 
(PID.TID 0000.0001) EXF_CHECK: #define ALLOW_EXF
(PID.TID 0000.0001) GAD_CHECK: #define ALLOW_GENERIC_ADVDIFF
(PID.TID 0000.0001) // =======================================================
(PID.TID 0000.0001) // Check Model config. (CONFIG_CHECK):
(PID.TID 0000.0001) // CONFIG_CHECK : Normal End
(PID.TID 0000.0001) // =======================================================
(PID.TID 0000.0001) 
(PID.TID 0000.0001)  MDS_READ_FIELD: opening global file: U0_2160x540x100.bin
(PID.TID 0000.0001)  MDS_READ_FIELD: opening global file: V0_2160x540x100.bin
(PID.TID 0000.0001)  MDS_READ_FIELD: opening global file: T0_2160x540x100.bin
(PID.TID 0000.0001)  MDS_READ_FIELD: opening global file: S0_2160x540x100.bin
(PID.TID 0000.0001) Start initial hydrostatic pressure computation
(PID.TID 0000.0001) Pressure is predetermined for buoyancyRelation OCEANIC
(PID.TID 0000.0001) 
(PID.TID 0000.0001)  write diagnostics summary to file ioUnit:      6
Iter.Nb:         0 ; Time(s):  0.0000000000000E+00
------------------------------------------------------------------------
2D/3D diagnostics: Number of lists:     2
------------------------------------------------------------------------
listId=    1 ; file name: diags/surface
 nFlds, nActive,       freq     &     phase        , nLev               
    5  |    5  |      3600.000000         0.000000 |   1
 levels:   1
 diag# | name   |   ipt  |  iMate | kLev|   count |   mate.C|           
    23 |ETAN    |      1 |      0 |   1 |       0 |
    80 |oceTAUX |      2 |      3 |   1 |       0 |       0 |
    81 |oceTAUY |      3 |      2 |   1 |       0 |       0 |
   185 |EXFuwind|      4 |      0 |   1 |       0 |
   186 |EXFvwind|      5 |      0 |   1 |       0 |
------------------------------------------------------------------------
listId=    2 ; file name: diags/interior
 nFlds, nActive,       freq     &     phase        , nLev               
    5  |    5  |      3600.000000         0.000000 | 100
 levels:   1   2   3   4   5   6   7   8   9  10  11  12  13  14  15  16  17  18  19  20  21  22  23  24  25
 levels:  26  27  28  29  30  31  32  33  34  35  36  37  38  39  40  41  42  43  44  45  46  47  48  49  50
 levels:  51  52  53  54  55  56  57  58  59  60  61  62  63  64  65  66  67  68  69  70  71  72  73  74  75
 levels:  76  77  78  79  80  81  82  83  84  85  86  87  88  89  90  91  92  93  94  95  96  97  98  99 100
 diag# | name   |   ipt  |  iMate | kLev|   count |   mate.C|           
    26 |THETA   |      6 |      0 | 100 |       0 |
    27 |SALT    |    106 |      0 | 100 |       0 |
    30 |UVEL    |    206 |    306 | 100 |       0 |       0 |
    31 |VVEL    |    306 |    206 | 100 |       0 |       0 |
    32 |WVEL    |    406 |      0 | 100 |       0 |
------------------------------------------------------------------------
Global & Regional Statistics diagnostics: Number of lists:     0
------------------------------------------------------------------------
(PID.TID 0000.0001)  MDS_READ_SEC_XZ: opening global file: OBNam_1620x13.bin
(PID.TID 0000.0001)  MDS_READ_SEC_XZ: opening global file: OBNph_1620x13.bin
(PID.TID 0000.0001)  MDS_READ_SEC_XZ: opening global file: OBSam_1620x13.bin
(PID.TID 0000.0001)  MDS_READ_SEC_XZ: opening global file: OBSph_1620x13.bin
(PID.TID 0000.0001)  MDS_READ_SEC_YZ: opening global file: OBEam_1620x13.bin
(PID.TID 0000.0001)  MDS_READ_SEC_YZ: opening global file: OBEph_1620x13.bin
(PID.TID 0000.0001)  MDS_READ_SEC_YZ: opening global file: OBWam_1620x13.bin
(PID.TID 0000.0001)  MDS_READ_SEC_YZ: opening global file: OBWph_1620x13.bin
(PID.TID 0000.0001)  MDS_READ_SEC_XZ: opening global file: OBNu_1620x100x26.bin
(PID.TID 0000.0001)  MDS_READ_SEC_XZ: opening global file: OBNu_1620x100x26.bin
(PID.TID 0000.0001)  MDS_READ_SEC_XZ: opening global file: OBNv_1620x100x26.bin
(PID.TID 0000.0001)  MDS_READ_SEC_XZ: opening global file: OBNv_1620x100x26.bin
(PID.TID 0000.0001)  MDS_READ_SEC_XZ: opening global file: OBNt_1620x100x26.bin
(PID.TID 0000.0001)  MDS_READ_SEC_XZ: opening global file: OBNt_1620x100x26.bin
(PID.TID 0000.0001)  MDS_READ_SEC_XZ: opening global file: OBNs_1620x100x26.bin
(PID.TID 0000.0001)  MDS_READ_SEC_XZ: opening global file: OBNs_1620x100x26.bin
(PID.TID 0000.0001)  MDS_READ_SEC_XZ: opening global file: OBSu_1620x100x26.bin
(PID.TID 0000.0001)  MDS_READ_SEC_XZ: opening global file: OBSu_1620x100x26.bin
(PID.TID 0000.0001)  MDS_READ_SEC_XZ: opening global file: OBSv_1620x100x26.bin
(PID.TID 0000.0001)  MDS_READ_SEC_XZ: opening global file: OBSv_1620x100x26.bin
(PID.TID 0000.0001)  MDS_READ_SEC_XZ: opening global file: OBSt_1620x100x26.bin
(PID.TID 0000.0001)  MDS_READ_SEC_XZ: opening global file: OBSt_1620x100x26.bin
(PID.TID 0000.0001)  MDS_READ_SEC_XZ: opening global file: OBSs_1620x100x26.bin
(PID.TID 0000.0001)  MDS_READ_SEC_XZ: opening global file: OBSs_1620x100x26.bin
(PID.TID 0000.0001)  MDS_READ_SEC_YZ: opening global file: OBEu_1620x100x26.bin
(PID.TID 0000.0001)  MDS_READ_SEC_YZ: opening global file: OBEu_1620x100x26.bin
(PID.TID 0000.0001)  MDS_READ_SEC_YZ: opening global file: OBEv_1620x100x26.bin
(PID.TID 0000.0001)  MDS_READ_SEC_YZ: opening global file: OBEv_1620x100x26.bin
(PID.TID 0000.0001)  MDS_READ_SEC_YZ: opening global file: OBEt_1620x100x26.bin
(PID.TID 0000.0001)  MDS_READ_SEC_YZ: opening global file: OBEt_1620x100x26.bin
(PID.TID 0000.0001)  MDS_READ_SEC_YZ: opening global file: OBEs_1620x100x26.bin
(PID.TID 0000.0001)  MDS_READ_SEC_YZ: opening global file: OBEs_1620x100x26.bin
(PID.TID 0000.0001)  MDS_READ_SEC_YZ: opening global file: OBWu_1620x100x26.bin
(PID.TID 0000.0001)  MDS_READ_SEC_YZ: opening global file: OBWu_1620x100x26.bin
(PID.TID 0000.0001)  MDS_READ_SEC_YZ: opening global file: OBWv_1620x100x26.bin
(PID.TID 0000.0001)  MDS_READ_SEC_YZ: opening global file: OBWv_1620x100x26.bin
(PID.TID 0000.0001)  MDS_READ_SEC_YZ: opening global file: OBWt_1620x100x26.bin
(PID.TID 0000.0001)  MDS_READ_SEC_YZ: opening global file: OBWt_1620x100x26.bin
(PID.TID 0000.0001)  MDS_READ_SEC_YZ: opening global file: OBWs_1620x100x26.bin
(PID.TID 0000.0001)  MDS_READ_SEC_YZ: opening global file: OBWs_1620x100x26.bin
(PID.TID 0000.0001) // =======================================================
(PID.TID 0000.0001) // Model current state
(PID.TID 0000.0001) // =======================================================
(PID.TID 0000.0001) 
(PID.TID 0000.0001) // =======================================================
(PID.TID 0000.0001) // Begin MONITOR dynamic field statistics
(PID.TID 0000.0001) // =======================================================
(PID.TID 0000.0001) %MON time_tsnumber                =                     0
(PID.TID 0000.0001) %MON time_secondsf                =   0.0000000000000E+00
(PID.TID 0000.0001) %MON dynstat_eta_max              =   0.0000000000000E+00
(PID.TID 0000.0001) %MON dynstat_eta_min              =   0.0000000000000E+00
(PID.TID 0000.0001) %MON dynstat_eta_mean             =   0.0000000000000E+00
(PID.TID 0000.0001) %MON dynstat_eta_sd               =   0.0000000000000E+00
(PID.TID 0000.0001) %MON dynstat_eta_del2             =   0.0000000000000E+00
(PID.TID 0000.0001) %MON dynstat_uvel_max             =   8.8630950450897E-01
(PID.TID 0000.0001) %MON dynstat_uvel_min             =  -1.8758810247487E+00
(PID.TID 0000.0001) %MON dynstat_uvel_mean            =   1.6622168883347E-03
(PID.TID 0000.0001) %MON dynstat_uvel_sd              =   5.0461746707727E-02
(PID.TID 0000.0001) %MON dynstat_uvel_del2            =   3.8969736556653E-07
(PID.TID 0000.0001) %MON dynstat_vvel_max             =   1.2655940055847E+00
(PID.TID 0000.0001) %MON dynstat_vvel_min             =  -6.7179697751999E-01
(PID.TID 0000.0001) %MON dynstat_vvel_mean            =   2.2179888067486E-03
(PID.TID 0000.0001) %MON dynstat_vvel_sd              =   5.0163613771689E-02
(PID.TID 0000.0001) %MON dynstat_vvel_del2            =   3.0816790039653E-07
(PID.TID 0000.0001) %MON dynstat_wvel_max             =   8.1181920477738E-02
(PID.TID 0000.0001) %MON dynstat_wvel_min             =  -1.0612269473950E-01
(PID.TID 0000.0001) %MON dynstat_wvel_mean            =  -1.8987776537478E-06
(PID.TID 0000.0001) %MON dynstat_wvel_sd              =   1.3420675386383E-03
(PID.TID 0000.0001) %MON dynstat_wvel_del2            =   3.7763823391248E-07
(PID.TID 0000.0001) %MON dynstat_theta_max            =   2.6144617080688E+01
(PID.TID 0000.0001) %MON dynstat_theta_min            =   1.4688636064529E+00
(PID.TID 0000.0001) %MON dynstat_theta_mean           =   5.5098811079639E+00
(PID.TID 0000.0001) %MON dynstat_theta_sd             =   4.7735348263522E+00
(PID.TID 0000.0001) %MON dynstat_theta_del2           =   4.0189244228698E-06
(PID.TID 0000.0001) %MON dynstat_salt_max             =   3.9185241699219E+01
(PID.TID 0000.0001) %MON dynstat_salt_min             =   3.3089591979980E+01
(PID.TID 0000.0001) %MON dynstat_salt_mean            =   3.5173374558354E+01
(PID.TID 0000.0001) %MON dynstat_salt_sd              =   3.7891790538390E-01
(PID.TID 0000.0001) %MON dynstat_salt_del2            =   4.9655867703385E-07
(PID.TID 0000.0001) %MON dynstat_sst_max              =   2.6144517898560E+01
(PID.TID 0000.0001) %MON dynstat_sst_min              =   4.0907053947449E+00
(PID.TID 0000.0001) %MON dynstat_sst_mean             =   1.9650343849242E+01
(PID.TID 0000.0001) %MON dynstat_sst_sd               =   3.6388129721395E+00
(PID.TID 0000.0001) %MON dynstat_sst_del2             =   1.9236263370514E-05
(PID.TID 0000.0001) %MON dynstat_sss_max              =   3.7335128784180E+01
(PID.TID 0000.0001) %MON dynstat_sss_min              =   3.3089591979980E+01
(PID.TID 0000.0001) %MON dynstat_sss_mean             =   3.5867950381789E+01
(PID.TID 0000.0001) %MON dynstat_sss_sd               =   4.8717346683800E-01
(PID.TID 0000.0001) %MON dynstat_sss_del2             =   5.0430181870384E-06
(PID.TID 0000.0001) %MON forcing_qnet_max             =   0.0000000000000E+00
(PID.TID 0000.0001) %MON forcing_qnet_min             =   0.0000000000000E+00
(PID.TID 0000.0001) %MON forcing_qnet_mean            =   0.0000000000000E+00
(PID.TID 0000.0001) %MON forcing_qnet_sd              =   0.0000000000000E+00
(PID.TID 0000.0001) %MON forcing_qnet_del2            =   0.0000000000000E+00
(PID.TID 0000.0001) %MON forcing_qsw_max              =   0.0000000000000E+00
(PID.TID 0000.0001) %MON forcing_qsw_min              =   0.0000000000000E+00
(PID.TID 0000.0001) %MON forcing_qsw_mean             =   0.0000000000000E+00
(PID.TID 0000.0001) %MON forcing_qsw_sd               =   0.0000000000000E+00
(PID.TID 0000.0001) %MON forcing_qsw_del2             =   0.0000000000000E+00
(PID.TID 0000.0001) %MON forcing_empmr_max            =   0.0000000000000E+00
(PID.TID 0000.0001) %MON forcing_empmr_min            =   0.0000000000000E+00
(PID.TID 0000.0001) %MON forcing_empmr_mean           =   0.0000000000000E+00
(PID.TID 0000.0001) %MON forcing_empmr_sd             =   0.0000000000000E+00
(PID.TID 0000.0001) %MON forcing_empmr_del2           =   0.0000000000000E+00
(PID.TID 0000.0001) %MON forcing_fu_max               =   0.0000000000000E+00
(PID.TID 0000.0001) %MON forcing_fu_min               =   0.0000000000000E+00
(PID.TID 0000.0001) %MON forcing_fu_mean              =   0.0000000000000E+00
(PID.TID 0000.0001) %MON forcing_fu_sd                =   0.0000000000000E+00
(PID.TID 0000.0001) %MON forcing_fu_del2              =   0.0000000000000E+00
(PID.TID 0000.0001) %MON forcing_fv_max               =   0.0000000000000E+00
(PID.TID 0000.0001) %MON forcing_fv_min               =   0.0000000000000E+00
(PID.TID 0000.0001) %MON forcing_fv_mean              =   0.0000000000000E+00
(PID.TID 0000.0001) %MON forcing_fv_sd                =   0.0000000000000E+00
(PID.TID 0000.0001) %MON forcing_fv_del2              =   0.0000000000000E+00
(PID.TID 0000.0001) %MON trAdv_CFL_u_max              =   0.0000000000000E+00
(PID.TID 0000.0001) %MON trAdv_CFL_v_max              =   0.0000000000000E+00
(PID.TID 0000.0001) %MON trAdv_CFL_w_max              =   0.0000000000000E+00
(PID.TID 0000.0001) %MON advcfl_uvel_max              =   1.1856011153417E-01
(PID.TID 0000.0001) %MON advcfl_vvel_max              =   7.6757824391116E-02
(PID.TID 0000.0001) %MON advcfl_wvel_max              =   1.0187778694992E+01
(PID.TID 0000.0001) %MON advcfl_W_hf_max              =   5.0834314777483E+00
(PID.TID 0000.0001) %MON pe_b_mean                    =   0.0000000000000E+00
(PID.TID 0000.0001) %MON ke_max                       =   1.6014428959053E+00
(PID.TID 0000.0001) %MON ke_mean                      =   2.5166740196819E-03
(PID.TID 0000.0001) %MON ke_vol                       =   4.5818637829946E+16
(PID.TID 0000.0001) %MON vort_r_min                   =  -2.7112734146701E-04
(PID.TID 0000.0001) %MON vort_r_max                   =   4.5265161546532E-04
(PID.TID 0000.0001) %MON vort_a_mean                  =   8.2147631912490E-05
(PID.TID 0000.0001) %MON vort_a_sd                    =   1.0110316051482E-05
(PID.TID 0000.0001) %MON vort_p_mean                  =   8.4848854517178E-05
(PID.TID 0000.0001) %MON vort_p_sd                    =   3.4983762006283E-05
(PID.TID 0000.0001) %MON surfExpan_theta_mean         =   1.6948485071266E-05
(PID.TID 0000.0001) %MON surfExpan_salt_mean          =  -1.7153393633960E-04
(PID.TID 0000.0001) // =======================================================
(PID.TID 0000.0001) // End MONITOR dynamic field statistics
(PID.TID 0000.0001) // =======================================================
(PID.TID 0000.0001) // =======================================================
(PID.TID 0000.0001) // Begin OBCS MONITOR field statistics
(PID.TID 0000.0001) // =======================================================
(PID.TID 0000.0001) %MON obc_E_uVel_max               =   2.6256945491454E-01
(PID.TID 0000.0001) %MON obc_E_uVel_min               =  -1.8758810247487E+00
(PID.TID 0000.0001) %MON obc_E_uVel_mean              =  -1.0160330511015E-04
(PID.TID 0000.0001) %MON obc_E_uVel_sd                =   4.3697380235515E-02
(PID.TID 0000.0001) %MON obc_E_uVel_Int               =  -1.9623662313840E+06
(PID.TID 0000.0001) %MON obc_W_uVel_max               =   3.2208083783541E-01
(PID.TID 0000.0001) %MON obc_W_uVel_min               =  -6.9554264922371E-01
(PID.TID 0000.0001) %MON obc_W_uVel_mean              =  -6.7613033682188E-03
(PID.TID 0000.0001) %MON obc_W_uVel_sd                =   8.7549536572285E-02
(PID.TID 0000.0001) %MON obc_W_uVel_Int               =  -4.1173851687418E+07
(PID.TID 0000.0001) %MON obc_N_vVel_max               =   2.9954429695928E-01
(PID.TID 0000.0001) %MON obc_N_vVel_min               =  -1.0434876647961E-01
(PID.TID 0000.0001) %MON obc_N_vVel_mean              =   1.7805297466882E-02
(PID.TID 0000.0001) %MON obc_N_vVel_sd                =   3.9512978281312E-02
(PID.TID 0000.0001) %MON obc_N_vVel_Int               =   1.4645661894208E+08
(PID.TID 0000.0001) %MON obc_S_vVel_max               =   5.8633016884792E-02
(PID.TID 0000.0001) %MON obc_S_vVel_min               =  -8.6627995972816E-02
(PID.TID 0000.0001) %MON obc_S_vVel_mean              =   1.1146064704227E-02
(PID.TID 0000.0001) %MON obc_S_vVel_sd                =   1.1548147174825E-02
(PID.TID 0000.0001) %MON obc_S_vVel_Int               =   1.2404343536369E+08
(PID.TID 0000.0001) %MON obc_E_theta_max              =   2.5544941308807E+01
(PID.TID 0000.0001) %MON obc_E_theta_min              =   1.4632956408867E+00
(PID.TID 0000.0001) %MON obc_E_theta_mean             =   5.4563396690713E+00
(PID.TID 0000.0001) %MON obc_E_theta_sd               =   5.6196026759855E+00
(PID.TID 0000.0001) %MON obc_W_theta_max              =   1.5386950142330E+01
(PID.TID 0000.0001) %MON obc_W_theta_min              =   1.8895907269856E+00
(PID.TID 0000.0001) %MON obc_W_theta_mean             =   4.2052280290808E+00
(PID.TID 0000.0001) %MON obc_W_theta_sd               =   2.6439330853041E+00
(PID.TID 0000.0001) %MON obc_N_theta_max              =   1.6390861045164E+01
(PID.TID 0000.0001) %MON obc_N_theta_min              =   2.0878096669606E+00
(PID.TID 0000.0001) %MON obc_N_theta_mean             =   5.8650817515544E+00
(PID.TID 0000.0001) %MON obc_N_theta_sd               =   3.8421424474263E+00
(PID.TID 0000.0001) %MON obc_S_theta_max              =   2.3211358119330E+01
(PID.TID 0000.0001) %MON obc_S_theta_min              =   1.8976913506980E+00
(PID.TID 0000.0001) %MON obc_S_theta_mean             =   5.4651427527168E+00
(PID.TID 0000.0001) %MON obc_S_theta_sd               =   4.8645400277153E+00
(PID.TID 0000.0001) %MON obc_E_salt_max               =   3.7284821974423E+01
(PID.TID 0000.0001) %MON obc_E_salt_min               =   3.4844694313817E+01
(PID.TID 0000.0001) %MON obc_E_salt_mean              =   3.5160048137740E+01
(PID.TID 0000.0001) %MON obc_E_salt_sd                =   4.6599308778692E-01
(PID.TID 0000.0001) %MON obc_W_salt_max               =   3.5867256908691E+01
(PID.TID 0000.0001) %MON obc_W_salt_min               =   3.3295014070045E+01
(PID.TID 0000.0001) %MON obc_W_salt_mean              =   3.4957946513299E+01
(PID.TID 0000.0001) %MON obc_W_salt_sd                =   2.4692964851778E-01
(PID.TID 0000.0001) %MON obc_N_salt_max               =   3.5910867647958E+01
(PID.TID 0000.0001) %MON obc_N_salt_min               =   3.4917015028685E+01
(PID.TID 0000.0001) %MON obc_N_salt_mean              =   3.5230514764299E+01
(PID.TID 0000.0001) %MON obc_N_salt_sd                =   3.0056289810708E-01
(PID.TID 0000.0001) %MON obc_S_salt_max               =   3.7318346630621E+01
(PID.TID 0000.0001) %MON obc_S_salt_min               =   3.4884963785598E+01
(PID.TID 0000.0001) %MON obc_S_salt_mean              =   3.5182820477531E+01
(PID.TID 0000.0001) %MON obc_S_salt_sd                =   4.4106963168094E-01
(PID.TID 0000.0001) // =======================================================
(PID.TID 0000.0001) // End OBCS MONITOR field statistics
(PID.TID 0000.0001) // =======================================================
(PID.TID 0000.0001)  EXF_INTERP_READ: opening file: jra55/jra55_u10m_2003
(PID.TID 0000.0001)  EXF_INTERP_READ: opening file: jra55/jra55_v10m_2003
(PID.TID 0000.0001)  EXF_INTERP_UV: fileU="jra55/jra55_u10m_2003", rec=     1 , x-Per,P.Sym=    T    T
(PID.TID 0000.0001)  S.edge (j=-1,0,1) : proc= 2.2 1.1 0.0, yIn=  -90.429910  -90.000000  -89.570090
(PID.TID 0000.0001)  N.edge (j=+0,+1,+2) proc= 0.0 1.1 2.2, yIn=   89.570063   90.000000   90.429937
(PID.TID 0000.0001)  EXF_INTERP_READ: opening file: jra55/jra55_u10m_2003
(PID.TID 0000.0001)  EXF_INTERP_READ: opening file: jra55/jra55_v10m_2003
(PID.TID 0000.0001)  EXF_INTERP_UV: fileU="jra55/jra55_u10m_2003", rec=     2 , x-Per,P.Sym=    T    T
(PID.TID 0000.0001)  S.edge (j=-1,0,1) : proc= 2.2 1.1 0.0, yIn=  -90.429910  -90.000000  -89.570090
(PID.TID 0000.0001)  N.edge (j=+0,+1,+2) proc= 0.0 1.1 2.2, yIn=   89.570063   90.000000   90.429937
(PID.TID 0000.0001)  EXF_INTERP_READ: opening file: jra55/jra55_tmp2m_degC_2003
(PID.TID 0000.0001)  EXF_INTERP: file="jra55/jra55_tmp2m_degC_2003", rec=     1 , x-Per,P.Sym=    T    T
(PID.TID 0000.0001)  S.edge (j=-1,0,1) : proc= 2.2 1.1 0.0, yIn=  -90.429910  -90.000000  -89.570090
(PID.TID 0000.0001)  N.edge (j=+0,+1,+2) proc= 0.0 1.1 2.2, yIn=   89.570063   90.000000   90.429937
(PID.TID 0000.0001)  EXF_INTERP_READ: opening file: jra55/jra55_tmp2m_degC_2003
(PID.TID 0000.0001)  EXF_INTERP: file="jra55/jra55_tmp2m_degC_2003", rec=     2 , x-Per,P.Sym=    T    T
(PID.TID 0000.0001)  S.edge (j=-1,0,1) : proc= 2.2 1.1 0.0, yIn=  -90.429910  -90.000000  -89.570090
(PID.TID 0000.0001)  N.edge (j=+0,+1,+2) proc= 0.0 1.1 2.2, yIn=   89.570063   90.000000   90.429937
(PID.TID 0000.0001)  EXF_INTERP_READ: opening file: jra55/jra55_spfh2m_2003
(PID.TID 0000.0001)  EXF_INTERP: file="jra55/jra55_spfh2m_2003", rec=     1 , x-Per,P.Sym=    T    T
(PID.TID 0000.0001)  S.edge (j=-1,0,1) : proc= 2.2 1.1 0.0, yIn=  -90.429910  -90.000000  -89.570090
(PID.TID 0000.0001)  N.edge (j=+0,+1,+2) proc= 0.0 1.1 2.2, yIn=   89.570063   90.000000   90.429937
(PID.TID 0000.0001)  EXF_INTERP_READ: opening file: jra55/jra55_spfh2m_2003
(PID.TID 0000.0001)  EXF_INTERP: file="jra55/jra55_spfh2m_2003", rec=     2 , x-Per,P.Sym=    T    T
(PID.TID 0000.0001)  S.edge (j=-1,0,1) : proc= 2.2 1.1 0.0, yIn=  -90.429910  -90.000000  -89.570090
(PID.TID 0000.0001)  N.edge (j=+0,+1,+2) proc= 0.0 1.1 2.2, yIn=   89.570063   90.000000   90.429937
(PID.TID 0000.0001)  EXF_INTERP_READ: opening file: jra55/jra55_rain_2002
(PID.TID 0000.0001)  EXF_INTERP: file="jra55/jra55_rain_2002", rec=  2920 , x-Per,P.Sym=    T    T
(PID.TID 0000.0001)  S.edge (j=-1,0,1) : proc= 2.2 1.1 0.0, yIn=  -90.429910  -90.000000  -89.570090
(PID.TID 0000.0001)  N.edge (j=+0,+1,+2) proc= 0.0 1.1 2.2, yIn=   89.570063   90.000000   90.429937
(PID.TID 0000.0001)  EXF_INTERP_READ: opening file: jra55/jra55_rain_2003
(PID.TID 0000.0001)  EXF_INTERP: file="jra55/jra55_rain_2003", rec=     1 , x-Per,P.Sym=    T    T
(PID.TID 0000.0001)  S.edge (j=-1,0,1) : proc= 2.2 1.1 0.0, yIn=  -90.429910  -90.000000  -89.570090
(PID.TID 0000.0001)  N.edge (j=+0,+1,+2) proc= 0.0 1.1 2.2, yIn=   89.570063   90.000000   90.429937
(PID.TID 0000.0001)  EXF_INTERP_READ: opening file: jra55/jra55_dsw_2002
(PID.TID 0000.0001)  EXF_INTERP: file="jra55/jra55_dsw_2002", rec=  2920 , x-Per,P.Sym=    T    T
(PID.TID 0000.0001)  S.edge (j=-1,0,1) : proc= 2.2 1.1 0.0, yIn=  -90.429910  -90.000000  -89.570090
(PID.TID 0000.0001)  N.edge (j=+0,+1,+2) proc= 0.0 1.1 2.2, yIn=   89.570063   90.000000   90.429937
(PID.TID 0000.0001)  EXF_INTERP_READ: opening file: jra55/jra55_dsw_2003
(PID.TID 0000.0001)  EXF_INTERP: file="jra55/jra55_dsw_2003", rec=     1 , x-Per,P.Sym=    T    T
(PID.TID 0000.0001)  S.edge (j=-1,0,1) : proc= 2.2 1.1 0.0, yIn=  -90.429910  -90.000000  -89.570090
(PID.TID 0000.0001)  N.edge (j=+0,+1,+2) proc= 0.0 1.1 2.2, yIn=   89.570063   90.000000   90.429937
(PID.TID 0000.0001)  EXF_INTERP_READ: opening file: jra55/jra55_dlw_2002
(PID.TID 0000.0001)  EXF_INTERP: file="jra55/jra55_dlw_2002", rec=  2920 , x-Per,P.Sym=    T    T
(PID.TID 0000.0001)  S.edge (j=-1,0,1) : proc= 2.2 1.1 0.0, yIn=  -90.429910  -90.000000  -89.570090
(PID.TID 0000.0001)  N.edge (j=+0,+1,+2) proc= 0.0 1.1 2.2, yIn=   89.570063   90.000000   90.429937
(PID.TID 0000.0001)  EXF_INTERP_READ: opening file: jra55/jra55_dlw_2003
(PID.TID 0000.0001)  EXF_INTERP: file="jra55/jra55_dlw_2003", rec=     1 , x-Per,P.Sym=    T    T
(PID.TID 0000.0001)  S.edge (j=-1,0,1) : proc= 2.2 1.1 0.0, yIn=  -90.429910  -90.000000  -89.570090
(PID.TID 0000.0001)  N.edge (j=+0,+1,+2) proc= 0.0 1.1 2.2, yIn=   89.570063   90.000000   90.429937
(PID.TID 0000.0001)  EXF_INTERP_READ: opening file: jra55/jra55_pres_2003
(PID.TID 0000.0001)  EXF_INTERP: file="jra55/jra55_pres_2003", rec=     1 , x-Per,P.Sym=    T    T
(PID.TID 0000.0001)  S.edge (j=-1,0,1) : proc= 2.2 1.1 0.0, yIn=  -90.429910  -90.000000  -89.570090
(PID.TID 0000.0001)  N.edge (j=+0,+1,+2) proc= 0.0 1.1 2.2, yIn=   89.570063   90.000000   90.429937
(PID.TID 0000.0001)  EXF_INTERP_READ: opening file: jra55/jra55_pres_2003
(PID.TID 0000.0001)  EXF_INTERP: file="jra55/jra55_pres_2003", rec=     2 , x-Per,P.Sym=    T    T
(PID.TID 0000.0001)  S.edge (j=-1,0,1) : proc= 2.2 1.1 0.0, yIn=  -90.429910  -90.000000  -89.570090
(PID.TID 0000.0001)  N.edge (j=+0,+1,+2) proc= 0.0 1.1 2.2, yIn=   89.570063   90.000000   90.429937
(PID.TID 0000.0001)  EXF_INTERP_READ: opening file: jra55/tide_2002
(PID.TID 0000.0001)  EXF_INTERP: file="jra55/tide_2002", rec=  8760 , x-Per,P.Sym=    T    T
(PID.TID 0000.0001)  S.edge (j=-1,0,1) : proc= 2.2 1.1 0.0, yIn=  -90.429910  -90.000000  -89.570090
(PID.TID 0000.0001)  N.edge (j=+0,+1,+2) proc= 0.0 1.1 2.2, yIn=   89.570063   90.000000   90.429937
(PID.TID 0000.0001)  EXF_INTERP_READ: opening file: jra55/tide_2003
(PID.TID 0000.0001)  EXF_INTERP: file="jra55/tide_2003", rec=     1 , x-Per,P.Sym=    T    T
(PID.TID 0000.0001)  S.edge (j=-1,0,1) : proc= 2.2 1.1 0.0, yIn=  -90.429910  -90.000000  -89.570090
(PID.TID 0000.0001)  N.edge (j=+0,+1,+2) proc= 0.0 1.1 2.2, yIn=   89.570063   90.000000   90.429937
(PID.TID 0000.0001)  EXF_INTERP_READ: opening file: runoff1p2472-360x180x12.bin
(PID.TID 0000.0001)  EXF_INTERP: file="runoff1p2472-360x180x12.bin", rec=    12 , x-Per,P.Sym=    T    T
(PID.TID 0000.0001)  S.edge (j=-1,0,1) : proc= 2.2 1.1 0.0, yIn=  -90.500000  -90.000000  -89.500000
(PID.TID 0000.0001)  N.edge (j=+0,+1,+2) proc= 0.0 1.1 2.2, yIn=   89.500000   90.000000   90.500000
(PID.TID 0000.0001)  EXF_INTERP_READ: opening file: runoff1p2472-360x180x12.bin
(PID.TID 0000.0001)  EXF_INTERP: file="runoff1p2472-360x180x12.bin", rec=     1 , x-Per,P.Sym=    T    T
(PID.TID 0000.0001)  S.edge (j=-1,0,1) : proc= 2.2 1.1 0.0, yIn=  -90.500000  -90.000000  -89.500000
(PID.TID 0000.0001)  N.edge (j=+0,+1,+2) proc= 0.0 1.1 2.2, yIn=   89.500000   90.000000   90.500000
(PID.TID 0000.0001) // =======================================================
(PID.TID 0000.0001) // Begin MONITOR EXF statistics
(PID.TID 0000.0001) // =======================================================
(PID.TID 0000.0001) %MON exf_tsnumber                 =                     0
(PID.TID 0000.0001) %MON exf_time_sec                 =   0.0000000000000E+00
(PID.TID 0000.0001) %MON exf_ustress_max              =   5.3943194659675E-01
(PID.TID 0000.0001) %MON exf_ustress_min              =  -3.0733204429005E-01
(PID.TID 0000.0001) %MON exf_ustress_mean             =   7.2933006026466E-02
(PID.TID 0000.0001) %MON exf_ustress_sd               =   1.4246076930115E-01
(PID.TID 0000.0001) %MON exf_ustress_del2             =   2.8037566857242E-07
(PID.TID 0000.0001) %MON exf_vstress_max              =   5.9828291410556E-01
(PID.TID 0000.0001) %MON exf_vstress_min              =  -1.8433513036506E-01
(PID.TID 0000.0001) %MON exf_vstress_mean             =   9.9688185524364E-02
(PID.TID 0000.0001) %MON exf_vstress_sd               =   1.3752771554816E-01
(PID.TID 0000.0001) %MON exf_vstress_del2             =   2.3986978661531E-07
(PID.TID 0000.0001) %MON exf_hflux_max                =   1.0771746040119E+03
(PID.TID 0000.0001) %MON exf_hflux_min                =  -1.3859544049814E+02
(PID.TID 0000.0001) %MON exf_hflux_mean               =   3.2588617781889E+02
(PID.TID 0000.0001) %MON exf_hflux_sd                 =   2.1434636323462E+02
(PID.TID 0000.0001) %MON exf_hflux_del2               =   8.7389851516241E-02
(PID.TID 0000.0001) %MON exf_sflux_max                =   2.3097427650446E-07
(PID.TID 0000.0001) %MON exf_sflux_min                =  -9.5795595342356E-07
(PID.TID 0000.0001) %MON exf_sflux_mean               =   4.3559451482316E-08
(PID.TID 0000.0001) %MON exf_sflux_sd                 =   1.0501222657935E-07
(PID.TID 0000.0001) %MON exf_sflux_del2               =   2.3666918507314E-11
(PID.TID 0000.0001) %MON exf_uwind_max                =   1.6141123190736E+01
(PID.TID 0000.0001) %MON exf_uwind_min                =  -1.2897981823435E+01
(PID.TID 0000.0001) %MON exf_uwind_mean               =   3.0192996420025E+00
(PID.TID 0000.0001) %MON exf_uwind_sd                 =   6.7497984324236E+00
(PID.TID 0000.0001) %MON exf_uwind_del2               =   1.6415640958633E-03
(PID.TID 0000.0001) %MON exf_vwind_max                =   1.5090364178864E+01
(PID.TID 0000.0001) %MON exf_vwind_min                =  -1.0679579420269E+01
(PID.TID 0000.0001) %MON exf_vwind_mean               =   4.6767447706201E+00
(PID.TID 0000.0001) %MON exf_vwind_sd                 =   6.0170498251182E+00
(PID.TID 0000.0001) %MON exf_vwind_del2               =   1.7014628130114E-03
(PID.TID 0000.0001) %MON exf_wspeed_max               =   1.8530427202278E+01
(PID.TID 0000.0001) %MON exf_wspeed_min               =   1.0105521285810E-02
(PID.TID 0000.0001) %MON exf_wspeed_mean              =   9.9876548651256E+00
(PID.TID 0000.0001) %MON exf_wspeed_sd                =   3.6054860628152E+00
(PID.TID 0000.0001) %MON exf_wspeed_del2              =   2.3641902479289E-03
(PID.TID 0000.0001) %MON exf_atemp_max                =   2.9779365549984E+02
(PID.TID 0000.0001) %MON exf_atemp_min                =   2.7422282357421E+02
(PID.TID 0000.0001) %MON exf_atemp_mean               =   2.8987749210178E+02
(PID.TID 0000.0001) %MON exf_atemp_sd                 =   4.3354318045478E+00
(PID.TID 0000.0001) %MON exf_atemp_del2               =   3.7040826191655E-03
(PID.TID 0000.0001) %MON exf_aqh_max                  =   1.4680263834069E-02
(PID.TID 0000.0001) %MON exf_aqh_min                  =   3.0385504551820E-03
(PID.TID 0000.0001) %MON exf_aqh_mean                 =   9.5885281173159E-03
(PID.TID 0000.0001) %MON exf_aqh_sd                   =   2.2791482203053E-03
(PID.TID 0000.0001) %MON exf_aqh_del2                 =   2.1314670954051E-06
(PID.TID 0000.0001) %MON exf_lwflux_max               =   1.5865744319212E+02
(PID.TID 0000.0001) %MON exf_lwflux_min               =   1.8160157994578E+00
(PID.TID 0000.0001) %MON exf_lwflux_mean              =   7.2824509364457E+01
(PID.TID 0000.0001) %MON exf_lwflux_sd                =   2.7811148576606E+01
(PID.TID 0000.0001) %MON exf_lwflux_del2              =   1.7303389354789E-02
(PID.TID 0000.0001) %MON exf_evap_max                 =   2.5264451586510E-07
(PID.TID 0000.0001) %MON exf_evap_min                 =  -4.3150877559302E-08
(PID.TID 0000.0001) %MON exf_evap_mean                =   8.0306715870553E-08
(PID.TID 0000.0001) %MON exf_evap_sd                  =   5.6712126992484E-08
(PID.TID 0000.0001) %MON exf_evap_del2                =   2.1779544412040E-11
(PID.TID 0000.0001) %MON exf_precip_max               =   9.5810380621842E-07
(PID.TID 0000.0001) %MON exf_precip_min               =   0.0000000000000E+00
(PID.TID 0000.0001) %MON exf_precip_mean              =   3.5158784191802E-08
(PID.TID 0000.0001) %MON exf_precip_sd                =   7.8175835960804E-08
(PID.TID 0000.0001) %MON exf_precip_del2              =   1.7295965633391E-11
(PID.TID 0000.0001) %MON exf_swflux_max               =   0.0000000000000E+00
(PID.TID 0000.0001) %MON exf_swflux_min               =  -2.3728311731603E+01
(PID.TID 0000.0001) %MON exf_swflux_mean              =  -7.9028939813350E-01
(PID.TID 0000.0001) %MON exf_swflux_sd                =   2.5059802198356E+00
(PID.TID 0000.0001) %MON exf_swflux_del2              =   5.4207397561689E-04
(PID.TID 0000.0001) %MON exf_swdown_max               =   2.6364790812893E+01
(PID.TID 0000.0001) %MON exf_swdown_min               =   0.0000000000000E+00
(PID.TID 0000.0001) %MON exf_swdown_mean              =   8.7809933125944E-01
(PID.TID 0000.0001) %MON exf_swdown_sd                =   2.7844224664840E+00
(PID.TID 0000.0001) %MON exf_swdown_del2              =   6.0230441735209E-04
(PID.TID 0000.0001) %MON exf_lwdown_max               =   4.0176144245630E+02
(PID.TID 0000.0001) %MON exf_lwdown_min               =   2.4830109528323E+02
(PID.TID 0000.0001) %MON exf_lwdown_mean              =   3.4205173678220E+02
(PID.TID 0000.0001) %MON exf_lwdown_sd                =   2.7548445333764E+01
(PID.TID 0000.0001) %MON exf_lwdown_del2              =   7.4678185270184E-02
(PID.TID 0000.0001) %MON exf_apressure_max            =   1.0299751478935E+05
(PID.TID 0000.0001) %MON exf_apressure_min            =   9.9661165467849E+04
(PID.TID 0000.0001) %MON exf_apressure_mean           =   1.0185750604345E+05
(PID.TID 0000.0001) %MON exf_apressure_sd             =   8.4139536627708E+02
(PID.TID 0000.0001) %MON exf_apressure_del2           =   2.2283178703176E+01
(PID.TID 0000.0001) %MON exf_runoff_max               =   4.4374822325994E-08
(PID.TID 0000.0001) %MON exf_runoff_min               =   0.0000000000000E+00
(PID.TID 0000.0001) %MON exf_runoff_mean              =   1.5884801964352E-09
(PID.TID 0000.0001) %MON exf_runoff_sd                =   5.3901974500338E-09
(PID.TID 0000.0001) %MON exf_runoff_del2              =   1.2741192460478E-12
(PID.TID 0000.0001) // =======================================================
(PID.TID 0000.0001) // End MONITOR EXF statistics
(PID.TID 0000.0001) // =======================================================
(PID.TID 0000.0001) SOLVE_FOR_PRESSURE: putPmEinXvector =    F
 cg2d: Sum(rhs),rhsMax =   5.26808316862993E+01  1.76486154924154E-01
(PID.TID 0000.0001)      cg2d_init_res =   1.55938366950582E+01
(PID.TID 0000.0001)      cg2d_iters(min,last) =      -1     326
(PID.TID 0000.0001)      cg2d_last_res =   7.02260259633987E-12
(PID.TID 0000.0001) // =======================================================
(PID.TID 0000.0001) // Begin MONITOR dynamic field statistics
(PID.TID 0000.0001) // =======================================================
(PID.TID 0000.0001) %MON time_tsnumber                =                     1
(PID.TID 0000.0001) %MON time_secondsf                =   2.4000000000000E+02
(PID.TID 0000.0001) %MON dynstat_eta_max              =   9.9412842553596E-01
(PID.TID 0000.0001) %MON dynstat_eta_min              =  -1.3588635056896E+00
(PID.TID 0000.0001) %MON dynstat_eta_mean             =  -1.7915144389706E-03
(PID.TID 0000.0001) %MON dynstat_eta_sd               =   6.6395321252774E-02
(PID.TID 0000.0001) %MON dynstat_eta_del2             =   7.8020260157049E-06
(PID.TID 0000.0001) %MON dynstat_uvel_max             =   8.8170752343840E-01
(PID.TID 0000.0001) %MON dynstat_uvel_min             =  -1.8936212999178E+00
(PID.TID 0000.0001) %MON dynstat_uvel_mean            =   2.1798129346352E-03
(PID.TID 0000.0001) %MON dynstat_uvel_sd              =   5.0223773334865E-02
(PID.TID 0000.0001) %MON dynstat_uvel_del2            =   4.2042771955890E-07
(PID.TID 0000.0001) %MON dynstat_vvel_max             =   1.2707741261528E+00
(PID.TID 0000.0001) %MON dynstat_vvel_min             =  -6.9994749079679E-01
(PID.TID 0000.0001) %MON dynstat_vvel_mean            =   2.5843011591466E-03
(PID.TID 0000.0001) %MON dynstat_vvel_sd              =   5.0258218849036E-02
(PID.TID 0000.0001) %MON dynstat_vvel_del2            =   4.3676549499876E-07
(PID.TID 0000.0001) %MON dynstat_wvel_max             =   3.6312836338126E-02
(PID.TID 0000.0001) %MON dynstat_wvel_min             =  -3.3423176663250E-02
(PID.TID 0000.0001) %MON dynstat_wvel_mean            =  -3.1307650764634E-06
(PID.TID 0000.0001) %MON dynstat_wvel_sd              =   5.9846298591316E-04
(PID.TID 0000.0001) %MON dynstat_wvel_del2            =   9.0670738415627E-08
(PID.TID 0000.0001) %MON dynstat_theta_max            =   2.6141461596091E+01
(PID.TID 0000.0001) %MON dynstat_theta_min            =   1.4688637011008E+00
(PID.TID 0000.0001) %MON dynstat_theta_mean           =   5.5098709281915E+00
(PID.TID 0000.0001) %MON dynstat_theta_sd             =   4.7735031793747E+00
(PID.TID 0000.0001) %MON dynstat_theta_del2           =   4.0094043048650E-06
(PID.TID 0000.0001) %MON dynstat_salt_max             =   3.9184248919559E+01
(PID.TID 0000.0001) %MON dynstat_salt_min             =   3.3089717932380E+01
(PID.TID 0000.0001) %MON dynstat_salt_mean            =   3.5173372990158E+01
(PID.TID 0000.0001) %MON dynstat_salt_sd              =   3.7891606095028E-01
(PID.TID 0000.0001) %MON dynstat_salt_del2            =   4.9541116125060E-07
(PID.TID 0000.0001) %MON dynstat_sst_max              =   2.6138440110686E+01
(PID.TID 0000.0001) %MON dynstat_sst_min              =   4.0763370766081E+00
(PID.TID 0000.0001) %MON dynstat_sst_mean             =   1.9647520318891E+01
(PID.TID 0000.0001) %MON dynstat_sst_sd               =   3.6381510236530E+00
(PID.TID 0000.0001) %MON dynstat_sst_del2             =   1.9150671559871E-05
(PID.TID 0000.0001) %MON dynstat_sss_max              =   3.7335144609879E+01
(PID.TID 0000.0001) %MON dynstat_sss_min              =   3.3089717932380E+01
(PID.TID 0000.0001) %MON dynstat_sss_mean             =   3.5868036042405E+01
(PID.TID 0000.0001) %MON dynstat_sss_sd               =   4.8721792414795E-01
(PID.TID 0000.0001) %MON dynstat_sss_del2             =   5.0258519925359E-06
(PID.TID 0000.0001) %MON forcing_qnet_max             =   1.0936095468116E+03
(PID.TID 0000.0001) %MON forcing_qnet_min             =  -1.6395567530148E+02
(PID.TID 0000.0001) %MON forcing_qnet_mean            =   3.3037704035853E+02
(PID.TID 0000.0001) %MON forcing_qnet_sd              =   2.2009896735697E+02
(PID.TID 0000.0001) %MON forcing_qnet_del2            =   1.2044688888553E-03
(PID.TID 0000.0001) %MON forcing_qsw_max              =   0.0000000000000E+00
(PID.TID 0000.0001) %MON forcing_qsw_min              =  -2.3728311731603E+01
(PID.TID 0000.0001) %MON forcing_qsw_mean             =  -7.9028939813350E-01
(PID.TID 0000.0001) %MON forcing_qsw_sd               =   2.5059802198356E+00
(PID.TID 0000.0001) %MON forcing_qsw_del2             =   8.0702625826315E-06
(PID.TID 0000.0001) %MON forcing_empmr_max            =   2.3097427650446E-04
(PID.TID 0000.0001) %MON forcing_empmr_min            =  -9.5795595342356E-04
(PID.TID 0000.0001) %MON forcing_empmr_mean           =   4.3559451482316E-05
(PID.TID 0000.0001) %MON forcing_empmr_sd             =   1.0501222657935E-04
(PID.TID 0000.0001) %MON forcing_empmr_del2           =   8.3077203898562E-10
(PID.TID 0000.0001) %MON forcing_fu_max               =   5.3939401310332E-01
(PID.TID 0000.0001) %MON forcing_fu_min               =  -3.0727213650202E-01
(PID.TID 0000.0001) %MON forcing_fu_mean              =   7.3044035714387E-02
(PID.TID 0000.0001) %MON forcing_fu_sd                =   1.4247359160070E-01
(PID.TID 0000.0001) %MON forcing_fu_del2              =   2.6378436721410E-07
(PID.TID 0000.0001) %MON forcing_fv_max               =   5.9826021457615E-01
(PID.TID 0000.0001) %MON forcing_fv_min               =  -1.8433456067641E-01
(PID.TID 0000.0001) %MON forcing_fv_mean              =   9.9716638515463E-02
(PID.TID 0000.0001) %MON forcing_fv_sd                =   1.3753657965740E-01
(PID.TID 0000.0001) %MON forcing_fv_del2              =   2.2635511248570E-07
(PID.TID 0000.0001) %MON trAdv_CFL_u_max              =   1.1964542659097E-01
(PID.TID 0000.0001) %MON trAdv_CFL_v_max              =   7.7086162891288E-02
(PID.TID 0000.0001) %MON trAdv_CFL_w_max              =   6.5359798727928E-01
(PID.TID 0000.0001) %MON advcfl_uvel_max              =   1.1968133882681E-01
(PID.TID 0000.0001) %MON advcfl_vvel_max              =   7.7086164268981E-02
(PID.TID 0000.0001) %MON advcfl_wvel_max              =   6.5359798727928E-01
(PID.TID 0000.0001) %MON advcfl_W_hf_max              =   6.5359798727928E-01
(PID.TID 0000.0001) %MON pe_b_mean                    =  -3.6733461789017E-05
(PID.TID 0000.0001) %MON ke_max                       =   1.6131348807699E+00
(PID.TID 0000.0001) %MON ke_mean                      =   2.5113469278889E-03
(PID.TID 0000.0001) %MON ke_vol                       =   4.5818637829946E+16
(PID.TID 0000.0001) %MON vort_r_min                   =  -3.7587384440430E-04
(PID.TID 0000.0001) %MON vort_r_max                   =   5.4366383073112E-04
(PID.TID 0000.0001) %MON vort_a_mean                  =   8.2147631201770E-05
(PID.TID 0000.0001) %MON vort_a_sd                    =   1.0119199421658E-05
(PID.TID 0000.0001) %MON vort_p_mean                  =   8.4848853783088E-05
(PID.TID 0000.0001) %MON vort_p_sd                    =   3.4985977812221E-05
(PID.TID 0000.0001) %MON surfExpan_theta_mean         =   3.6963859389720E-05
(PID.TID 0000.0001) %MON surfExpan_salt_mean          =  -2.3806320263495E-04
(PID.TID 0000.0001) // =======================================================
(PID.TID 0000.0001) // End MONITOR dynamic field statistics
(PID.TID 0000.0001) // =======================================================
(PID.TID 0000.0001) // =======================================================
(PID.TID 0000.0001) // Begin OBCS MONITOR field statistics
(PID.TID 0000.0001) // =======================================================
(PID.TID 0000.0001) %MON obc_E_uVel_max               =   2.6271699532319E-01
(PID.TID 0000.0001) %MON obc_E_uVel_min               =  -1.8936212999178E+00
(PID.TID 0000.0001) %MON obc_E_uVel_mean              =   4.1713709105297E-04
(PID.TID 0000.0001) %MON obc_E_uVel_sd                =   4.3766852122481E-02
(PID.TID 0000.0001) %MON obc_E_uVel_Int               =   8.0565857621721E+06
(PID.TID 0000.0001) %MON obc_W_uVel_max               =   3.2214978243200E-01
(PID.TID 0000.0001) %MON obc_W_uVel_min               =  -6.9549587488143E-01
(PID.TID 0000.0001) %MON obc_W_uVel_mean              =  -6.6022905006703E-03
(PID.TID 0000.0001) %MON obc_W_uVel_sd                =   8.7432928227324E-02
(PID.TID 0000.0001) %MON obc_W_uVel_Int               =  -4.0205521785878E+07
(PID.TID 0000.0001) %MON obc_N_vVel_max               =   3.0015698054133E-01
(PID.TID 0000.0001) %MON obc_N_vVel_min               =  -1.0388203773328E-01
(PID.TID 0000.0001) %MON obc_N_vVel_mean              =   1.8109562645636E-02
(PID.TID 0000.0001) %MON obc_N_vVel_sd                =   3.9657629528299E-02
(PID.TID 0000.0001) %MON obc_N_vVel_Int               =   1.4895933755293E+08
(PID.TID 0000.0001) %MON obc_S_vVel_max               =   5.7851472271831E-02
(PID.TID 0000.0001) %MON obc_S_vVel_min               =  -8.7107496963578E-02
(PID.TID 0000.0001) %MON obc_S_vVel_mean              =   1.0141167972462E-02
(PID.TID 0000.0001) %MON obc_S_vVel_sd                =   1.1534279060958E-02
(PID.TID 0000.0001) %MON obc_S_vVel_Int               =   1.1286004049728E+08
(PID.TID 0000.0001) %MON obc_E_theta_max              =   2.5544838560027E+01
(PID.TID 0000.0001) %MON obc_E_theta_min              =   1.4632960371739E+00
(PID.TID 0000.0001) %MON obc_E_theta_mean             =   5.4563393310155E+00
(PID.TID 0000.0001) %MON obc_E_theta_sd               =   5.6195990621500E+00
(PID.TID 0000.0001) %MON obc_W_theta_max              =   1.5386830228718E+01
(PID.TID 0000.0001) %MON obc_W_theta_min              =   1.8895907760510E+00
(PID.TID 0000.0001) %MON obc_W_theta_mean             =   4.2052158085619E+00
(PID.TID 0000.0001) %MON obc_W_theta_sd               =   2.6439128384272E+00
(PID.TID 0000.0001) %MON obc_N_theta_max              =   1.6390772942977E+01
(PID.TID 0000.0001) %MON obc_N_theta_min              =   2.0878063917867E+00
(PID.TID 0000.0001) %MON obc_N_theta_mean             =   5.8650779479625E+00
(PID.TID 0000.0001) %MON obc_N_theta_sd               =   3.8421365553709E+00
(PID.TID 0000.0001) %MON obc_S_theta_max              =   2.3211274182239E+01
(PID.TID 0000.0001) %MON obc_S_theta_min              =   1.8976913399602E+00
(PID.TID 0000.0001) %MON obc_S_theta_mean             =   5.4651411372765E+00
(PID.TID 0000.0001) %MON obc_S_theta_sd               =   4.8645356146066E+00
(PID.TID 0000.0001) %MON obc_E_salt_max               =   3.7284809904906E+01
(PID.TID 0000.0001) %MON obc_E_salt_min               =   3.4844694366037E+01
(PID.TID 0000.0001) %MON obc_E_salt_mean              =   3.5160048207598E+01
(PID.TID 0000.0001) %MON obc_E_salt_sd                =   4.6599311733544E-01
(PID.TID 0000.0001) %MON obc_W_salt_max               =   3.5867257411747E+01
(PID.TID 0000.0001) %MON obc_W_salt_min               =   3.3295019572678E+01
(PID.TID 0000.0001) %MON obc_W_salt_mean              =   3.4957945987996E+01
(PID.TID 0000.0001) %MON obc_W_salt_sd                =   2.4692891357317E-01
(PID.TID 0000.0001) %MON obc_N_salt_max               =   3.5910867239595E+01
(PID.TID 0000.0001) %MON obc_N_salt_min               =   3.4917015014760E+01
(PID.TID 0000.0001) %MON obc_N_salt_mean              =   3.5230514638085E+01
(PID.TID 0000.0001) %MON obc_N_salt_sd                =   3.0056297679150E-01
(PID.TID 0000.0001) %MON obc_S_salt_max               =   3.7318339746237E+01
(PID.TID 0000.0001) %MON obc_S_salt_min               =   3.4884963781769E+01
(PID.TID 0000.0001) %MON obc_S_salt_mean              =   3.5182820159566E+01
(PID.TID 0000.0001) %MON obc_S_salt_sd                =   4.4106859466222E-01
(PID.TID 0000.0001) // =======================================================
(PID.TID 0000.0001) // End OBCS MONITOR field statistics
(PID.TID 0000.0001) // =======================================================
(PID.TID 0000.0001) // =======================================================
(PID.TID 0000.0001) // Begin MONITOR EXF statistics
(PID.TID 0000.0001) // =======================================================
(PID.TID 0000.0001) %MON exf_tsnumber                 =                     1
(PID.TID 0000.0001) %MON exf_time_sec                 =   2.4000000000000E+02
(PID.TID 0000.0001) %MON exf_ustress_max              =   5.3578416575753E-01
(PID.TID 0000.0001) %MON exf_ustress_min              =  -3.0831155627690E-01
(PID.TID 0000.0001) %MON exf_ustress_mean             =   7.2501984486729E-02
(PID.TID 0000.0001) %MON exf_ustress_sd               =   1.4197936938210E-01
(PID.TID 0000.0001) %MON exf_ustress_del2             =   2.8462857173906E-07
(PID.TID 0000.0001) %MON exf_vstress_max              =   5.9444079237001E-01
(PID.TID 0000.0001) %MON exf_vstress_min              =  -1.8297698680219E-01
(PID.TID 0000.0001) %MON exf_vstress_mean             =   9.9303992519710E-02
(PID.TID 0000.0001) %MON exf_vstress_sd               =   1.3700132807547E-01
(PID.TID 0000.0001) %MON exf_vstress_del2             =   2.4860111468901E-07
(PID.TID 0000.0001) %MON exf_hflux_max                =   1.0735926656459E+03
(PID.TID 0000.0001) %MON exf_hflux_min                =  -1.3746934186982E+02
(PID.TID 0000.0001) %MON exf_hflux_mean               =   3.2532609556122E+02
(PID.TID 0000.0001) %MON exf_hflux_sd                 =   2.1374523915167E+02
(PID.TID 0000.0001) %MON exf_hflux_del2               =   8.7193091422508E-02
(PID.TID 0000.0001) %MON exf_sflux_max                =   2.3008067321088E-07
(PID.TID 0000.0001) %MON exf_sflux_min                =  -9.7121008583626E-07
(PID.TID 0000.0001) %MON exf_sflux_mean               =   4.3294382764432E-08
(PID.TID 0000.0001) %MON exf_sflux_sd                 =   1.0531416411182E-07
(PID.TID 0000.0001) %MON exf_sflux_del2               =   2.3686196045148E-11
(PID.TID 0000.0001) %MON exf_uwind_max                =   1.6069077031271E+01
(PID.TID 0000.0001) %MON exf_uwind_min                =  -1.2922879157248E+01
(PID.TID 0000.0001) %MON exf_uwind_mean               =   3.0086649957535E+00
(PID.TID 0000.0001) %MON exf_uwind_sd                 =   6.7491442150327E+00
(PID.TID 0000.0001) %MON exf_uwind_del2               =   1.6403554406086E-03
(PID.TID 0000.0001) %MON exf_vwind_max                =   1.5060774436018E+01
(PID.TID 0000.0001) %MON exf_vwind_min                =  -1.0645367043589E+01
(PID.TID 0000.0001) %MON exf_vwind_mean               =   4.6680849783713E+00
(PID.TID 0000.0001) %MON exf_vwind_sd                 =   6.0066224782605E+00
(PID.TID 0000.0001) %MON exf_vwind_del2               =   1.6986608729464E-03
(PID.TID 0000.0001) %MON exf_wspeed_max               =   1.8497014070313E+01
(PID.TID 0000.0001) %MON exf_wspeed_min               =   6.0180383405757E-02
(PID.TID 0000.0001) %MON exf_wspeed_mean              =   9.9763556958438E+00
(PID.TID 0000.0001) %MON exf_wspeed_sd                =   3.5980370597906E+00
(PID.TID 0000.0001) %MON exf_wspeed_del2              =   2.3613338694747E-03
(PID.TID 0000.0001) %MON exf_atemp_max                =   2.9779320147125E+02
(PID.TID 0000.0001) %MON exf_atemp_min                =   2.7424282999764E+02
(PID.TID 0000.0001) %MON exf_atemp_mean               =   2.8987756561554E+02
(PID.TID 0000.0001) %MON exf_atemp_sd                 =   4.3318680809458E+00
(PID.TID 0000.0001) %MON exf_atemp_del2               =   3.7040484925823E-03
(PID.TID 0000.0001) %MON exf_aqh_max                  =   1.4674777987948E-02
(PID.TID 0000.0001) %MON exf_aqh_min                  =   3.0467757253354E-03
(PID.TID 0000.0001) %MON exf_aqh_mean                 =   9.5881449352768E-03
(PID.TID 0000.0001) %MON exf_aqh_sd                   =   2.2765794244146E-03
(PID.TID 0000.0001) %MON exf_aqh_del2                 =   2.1313191140464E-06
(PID.TID 0000.0001) %MON exf_lwflux_max               =   1.5843780103699E+02
(PID.TID 0000.0001) %MON exf_lwflux_min               =   1.6090888923273E+00
(PID.TID 0000.0001) %MON exf_lwflux_mean              =   7.2807825042626E+01
(PID.TID 0000.0001) %MON exf_lwflux_sd                =   2.7811854635756E+01
(PID.TID 0000.0001) %MON exf_lwflux_del2              =   1.7298574763778E-02
(PID.TID 0000.0001) %MON exf_evap_max                 =   2.5177260395962E-07
(PID.TID 0000.0001) %MON exf_evap_min                 =  -4.2936063957544E-08
(PID.TID 0000.0001) %MON exf_evap_mean                =   8.0136505378210E-08
(PID.TID 0000.0001) %MON exf_evap_sd                  =   5.6539645173515E-08
(PID.TID 0000.0001) %MON exf_evap_del2                =   2.1723437300565E-11
(PID.TID 0000.0001) %MON exf_precip_max               =   9.7121411578175E-07
(PID.TID 0000.0001) %MON exf_precip_min               =   0.0000000000000E+00
(PID.TID 0000.0001) %MON exf_precip_mean              =   3.5253642417343E-08
(PID.TID 0000.0001) %MON exf_precip_sd                =   7.8573989086579E-08
(PID.TID 0000.0001) %MON exf_precip_del2              =   1.7370044333973E-11
(PID.TID 0000.0001) %MON exf_swflux_max               =   0.0000000000000E+00
(PID.TID 0000.0001) %MON exf_swflux_min               =  -2.2673720099088E+01
(PID.TID 0000.0001) %MON exf_swflux_mean              =  -7.5516542488312E-01
(PID.TID 0000.0001) %MON exf_swflux_sd                =   2.3946033211762E+00
(PID.TID 0000.0001) %MON exf_swflux_del2              =   5.1798179892280E-04
(PID.TID 0000.0001) %MON exf_swdown_max               =   2.5193022332320E+01
(PID.TID 0000.0001) %MON exf_swdown_min               =   0.0000000000000E+00
(PID.TID 0000.0001) %MON exf_swdown_mean              =   8.3907269431458E-01
(PID.TID 0000.0001) %MON exf_swdown_sd                =   2.6606703568625E+00
(PID.TID 0000.0001) %MON exf_swdown_del2              =   5.7553533213645E-04
(PID.TID 0000.0001) %MON exf_lwdown_max               =   4.0186343619066E+02
(PID.TID 0000.0001) %MON exf_lwdown_min               =   2.4851490810012E+02
(PID.TID 0000.0001) %MON exf_lwdown_mean              =   3.4205271486326E+02
(PID.TID 0000.0001) %MON exf_lwdown_sd                =   2.7535958549633E+01
(PID.TID 0000.0001) %MON exf_lwdown_del2              =   7.4678533998637E-02
(PID.TID 0000.0001) %MON exf_apressure_max            =   1.0299488031782E+05
(PID.TID 0000.0001) %MON exf_apressure_min            =   9.9660044885351E+04
(PID.TID 0000.0001) %MON exf_apressure_mean           =   1.0185587233582E+05
(PID.TID 0000.0001) %MON exf_apressure_sd             =   8.4080045643882E+02
(PID.TID 0000.0001) %MON exf_apressure_del2           =   2.2282830623102E+01
(PID.TID 0000.0001) %MON exf_runoff_max               =   4.4374822325994E-08
(PID.TID 0000.0001) %MON exf_runoff_min               =   0.0000000000000E+00
(PID.TID 0000.0001) %MON exf_runoff_mean              =   1.5884801964352E-09
(PID.TID 0000.0001) %MON exf_runoff_sd                =   5.3901974500338E-09
(PID.TID 0000.0001) %MON exf_runoff_del2              =   1.2741192460478E-12
(PID.TID 0000.0001) // =======================================================
(PID.TID 0000.0001) // End MONITOR EXF statistics
(PID.TID 0000.0001) // =======================================================
 cg2d: Sum(rhs),rhsMax =   1.19495452882109E+02  3.54993010215608E-02
(PID.TID 0000.0001)      cg2d_init_res =   1.40010337884354E+01
(PID.TID 0000.0001)      cg2d_iters(min,last) =      -1     323
(PID.TID 0000.0001)      cg2d_last_res =   6.90457173874455E-12
(PID.TID 0000.0001) // =======================================================
(PID.TID 0000.0001) // Begin MONITOR dynamic field statistics
(PID.TID 0000.0001) // =======================================================
(PID.TID 0000.0001) %MON time_tsnumber                =                     2
(PID.TID 0000.0001) %MON time_secondsf                =   4.8000000000000E+02
(PID.TID 0000.0001) %MON dynstat_eta_max              =   8.6679038141441E-01
(PID.TID 0000.0001) %MON dynstat_eta_min              =  -1.5264754703725E+00
(PID.TID 0000.0001) %MON dynstat_eta_mean             =  -4.0636759591118E-03
(PID.TID 0000.0001) %MON dynstat_eta_sd               =   9.8378972575509E-02
(PID.TID 0000.0001) %MON dynstat_eta_del2             =   3.4531553541994E-06
(PID.TID 0000.0001) %MON dynstat_uvel_max             =   9.1234540344924E-01
(PID.TID 0000.0001) %MON dynstat_uvel_min             =  -1.9219878727694E+00
(PID.TID 0000.0001) %MON dynstat_uvel_mean            =   2.6889731887301E-03
(PID.TID 0000.0001) %MON dynstat_uvel_sd              =   5.0110633790303E-02
(PID.TID 0000.0001) %MON dynstat_uvel_del2            =   4.3064758550400E-07
(PID.TID 0000.0001) %MON dynstat_vvel_max             =   1.2807645725392E+00
(PID.TID 0000.0001) %MON dynstat_vvel_min             =  -7.0568653470624E-01
(PID.TID 0000.0001) %MON dynstat_vvel_mean            =   2.9189176569766E-03
(PID.TID 0000.0001) %MON dynstat_vvel_sd              =   5.0442677234168E-02
(PID.TID 0000.0001) %MON dynstat_vvel_del2            =   4.5924001701128E-07
(PID.TID 0000.0001) %MON dynstat_wvel_max             =   3.7125062903703E-02
(PID.TID 0000.0001) %MON dynstat_wvel_min             =  -3.2773584189939E-02
(PID.TID 0000.0001) %MON dynstat_wvel_mean            =  -4.3588035326754E-06
(PID.TID 0000.0001) %MON dynstat_wvel_sd              =   5.8560119146601E-04
(PID.TID 0000.0001) %MON dynstat_wvel_del2            =   9.0318188916427E-08
(PID.TID 0000.0001) %MON dynstat_theta_max            =   2.6140838422054E+01
(PID.TID 0000.0001) %MON dynstat_theta_min            =   1.4688638113590E+00
(PID.TID 0000.0001) %MON dynstat_theta_mean           =   5.5098610943656E+00
(PID.TID 0000.0001) %MON dynstat_theta_sd             =   4.7734699097310E+00
(PID.TID 0000.0001) %MON dynstat_theta_del2           =   4.0036635512503E-06
(PID.TID 0000.0001) %MON dynstat_salt_max             =   3.9182775308461E+01
(PID.TID 0000.0001) %MON dynstat_salt_min             =   3.3089852754084E+01
(PID.TID 0000.0001) %MON dynstat_salt_mean            =   3.5173371472554E+01
(PID.TID 0000.0001) %MON dynstat_salt_sd              =   3.7891432239198E-01
(PID.TID 0000.0001) %MON dynstat_salt_del2            =   4.9560032881840E-07
(PID.TID 0000.0001) %MON dynstat_sst_max              =   2.6135865926738E+01
(PID.TID 0000.0001) %MON dynstat_sst_min              =   4.0613362615384E+00
(PID.TID 0000.0001) %MON dynstat_sst_mean             =   1.9645341663711E+01
(PID.TID 0000.0001) %MON dynstat_sst_sd               =   3.6376931806289E+00
(PID.TID 0000.0001) %MON dynstat_sst_del2             =   1.9099291304109E-05
(PID.TID 0000.0001) %MON dynstat_sss_max              =   3.7335162461741E+01
(PID.TID 0000.0001) %MON dynstat_sss_min              =   3.3089852754084E+01
(PID.TID 0000.0001) %MON dynstat_sss_mean             =   3.5868109164184E+01
(PID.TID 0000.0001) %MON dynstat_sss_sd               =   4.8725170253457E-01
(PID.TID 0000.0001) %MON dynstat_sss_del2             =   5.0103245809623E-06
(PID.TID 0000.0001) %MON forcing_qnet_max             =   1.0899373741291E+03
(PID.TID 0000.0001) %MON forcing_qnet_min             =  -1.6574934875975E+02
(PID.TID 0000.0001) %MON forcing_qnet_mean            =   3.2979473043091E+02
(PID.TID 0000.0001) %MON forcing_qnet_sd              =   2.1950037679697E+02
(PID.TID 0000.0001) %MON forcing_qnet_del2            =   1.1971776005996E-03
(PID.TID 0000.0001) %MON forcing_qsw_max              =   0.0000000000000E+00
(PID.TID 0000.0001) %MON forcing_qsw_min              =  -2.2673720099088E+01
(PID.TID 0000.0001) %MON forcing_qsw_mean             =  -7.5516542488312E-01
(PID.TID 0000.0001) %MON forcing_qsw_sd               =   2.3946033211762E+00
(PID.TID 0000.0001) %MON forcing_qsw_del2             =   7.7115842456256E-06
(PID.TID 0000.0001) %MON forcing_empmr_max            =   2.3008067321088E-04
(PID.TID 0000.0001) %MON forcing_empmr_min            =  -9.7121008583626E-04
(PID.TID 0000.0001) %MON forcing_empmr_mean           =   4.3294382764432E-05
(PID.TID 0000.0001) %MON forcing_empmr_sd             =   1.0531416411182E-04
(PID.TID 0000.0001) %MON forcing_empmr_del2           =   8.3810495644356E-10
(PID.TID 0000.0001) %MON forcing_fu_max               =   5.3563438951818E-01
(PID.TID 0000.0001) %MON forcing_fu_min               =  -3.0826842866011E-01
(PID.TID 0000.0001) %MON forcing_fu_mean              =   7.2612349503460E-02
(PID.TID 0000.0001) %MON forcing_fu_sd                =   1.4199194279693E-01
(PID.TID 0000.0001) %MON forcing_fu_del2              =   2.6450345951087E-07
(PID.TID 0000.0001) %MON forcing_fv_max               =   5.9441825658280E-01
(PID.TID 0000.0001) %MON forcing_fv_min               =  -1.8297577863800E-01
(PID.TID 0000.0001) %MON forcing_fv_mean              =   9.9332222522153E-02
(PID.TID 0000.0001) %MON forcing_fv_sd                =   1.3701027558021E-01
(PID.TID 0000.0001) %MON forcing_fv_del2              =   2.2980069317430E-07
(PID.TID 0000.0001) %MON trAdv_CFL_u_max              =   1.2143772274947E-01
(PID.TID 0000.0001) %MON trAdv_CFL_v_max              =   7.7704962519117E-02
(PID.TID 0000.0001) %MON trAdv_CFL_w_max              =   5.2131160669558E-01
(PID.TID 0000.0001) %MON advcfl_uvel_max              =   1.2147417323196E-01
(PID.TID 0000.0001) %MON advcfl_vvel_max              =   7.7704963907868E-02
(PID.TID 0000.0001) %MON advcfl_wvel_max              =   5.2285852540982E-01
(PID.TID 0000.0001) %MON advcfl_W_hf_max              =   5.2441465197353E-01
(PID.TID 0000.0001) %MON pe_b_mean                    =  -8.4183004467598E-05
(PID.TID 0000.0001) %MON ke_max                       =   1.6883579763276E+00
(PID.TID 0000.0001) %MON ke_mean                      =   2.5170750487778E-03
(PID.TID 0000.0001) %MON ke_vol                       =   4.5818637829946E+16
(PID.TID 0000.0001) %MON vort_r_min                   =  -4.2983310589031E-04
(PID.TID 0000.0001) %MON vort_r_max                   =   5.9923219011059E-04
(PID.TID 0000.0001) %MON vort_a_mean                  =   8.2147630477706E-05
(PID.TID 0000.0001) %MON vort_a_sd                    =   1.0122412439810E-05
(PID.TID 0000.0001) %MON vort_p_mean                  =   8.4848853035215E-05
(PID.TID 0000.0001) %MON vort_p_sd                    =   3.4984879507468E-05
(PID.TID 0000.0001) %MON surfExpan_theta_mean         =   2.0132927475073E-05
(PID.TID 0000.0001) %MON surfExpan_salt_mean          =  -3.0945014607166E-04
(PID.TID 0000.0001) // =======================================================
(PID.TID 0000.0001) // End MONITOR dynamic field statistics
(PID.TID 0000.0001) // =======================================================
(PID.TID 0000.0001) // =======================================================
(PID.TID 0000.0001) // Begin OBCS MONITOR field statistics
(PID.TID 0000.0001) // =======================================================
(PID.TID 0000.0001) %MON obc_E_uVel_max               =   2.6285821772047E-01
(PID.TID 0000.0001) %MON obc_E_uVel_min               =  -1.9219878727694E+00
(PID.TID 0000.0001) %MON obc_E_uVel_mean              =   9.3449474659671E-04
(PID.TID 0000.0001) %MON obc_E_uVel_sd                =   4.3840264952207E-02
(PID.TID 0000.0001) %MON obc_E_uVel_Int               =   1.8048831503453E+07
(PID.TID 0000.0001) %MON obc_W_uVel_max               =   3.2224240947350E-01
(PID.TID 0000.0001) %MON obc_W_uVel_min               =  -6.9543695747488E-01
(PID.TID 0000.0001) %MON obc_W_uVel_mean              =  -6.4368853375611E-03
(PID.TID 0000.0001) %MON obc_W_uVel_sd                =   8.7314472981357E-02
(PID.TID 0000.0001) %MON obc_W_uVel_Int               =  -3.9198265154530E+07
(PID.TID 0000.0001) %MON obc_N_vVel_max               =   3.0072352159212E-01
(PID.TID 0000.0001) %MON obc_N_vVel_min               =  -1.0343314803245E-01
(PID.TID 0000.0001) %MON obc_N_vVel_mean              =   1.8394075696998E-02
(PID.TID 0000.0001) %MON obc_N_vVel_sd                =   3.9795827374913E-02
(PID.TID 0000.0001) %MON obc_N_vVel_Int               =   1.5129958598881E+08
(PID.TID 0000.0001) %MON obc_S_vVel_max               =   5.7050109378241E-02
(PID.TID 0000.0001) %MON obc_S_vVel_min               =  -8.7586952933349E-02
(PID.TID 0000.0001) %MON obc_S_vVel_mean              =   9.1250601072914E-03
(PID.TID 0000.0001) %MON obc_S_vVel_sd                =   1.1518394296798E-02
(PID.TID 0000.0001) %MON obc_S_vVel_Int               =   1.0155187805247E+08
(PID.TID 0000.0001) %MON obc_E_theta_max              =   2.5544735811248E+01
(PID.TID 0000.0001) %MON obc_E_theta_min              =   1.4632964334612E+00
(PID.TID 0000.0001) %MON obc_E_theta_mean             =   5.4563389929597E+00
(PID.TID 0000.0001) %MON obc_E_theta_sd               =   5.6195954483562E+00
(PID.TID 0000.0001) %MON obc_W_theta_max              =   1.5386710315106E+01
(PID.TID 0000.0001) %MON obc_W_theta_min              =   1.8895908251163E+00
(PID.TID 0000.0001) %MON obc_W_theta_mean             =   4.2052035880430E+00
(PID.TID 0000.0001) %MON obc_W_theta_sd               =   2.6438925920330E+00
(PID.TID 0000.0001) %MON obc_N_theta_max              =   1.6390684840790E+01
(PID.TID 0000.0001) %MON obc_N_theta_min              =   2.0878031166128E+00
(PID.TID 0000.0001) %MON obc_N_theta_mean             =   5.8650741443705E+00
(PID.TID 0000.0001) %MON obc_N_theta_sd               =   3.8421306633883E+00
(PID.TID 0000.0001) %MON obc_S_theta_max              =   2.3211190245148E+01
(PID.TID 0000.0001) %MON obc_S_theta_min              =   1.8976913292224E+00
(PID.TID 0000.0001) %MON obc_S_theta_mean             =   5.4651395218361E+00
(PID.TID 0000.0001) %MON obc_S_theta_sd               =   4.8645312015221E+00
(PID.TID 0000.0001) %MON obc_E_salt_max               =   3.7284797835388E+01
(PID.TID 0000.0001) %MON obc_E_salt_min               =   3.4844694418258E+01
(PID.TID 0000.0001) %MON obc_E_salt_mean              =   3.5160048277456E+01
(PID.TID 0000.0001) %MON obc_E_salt_sd                =   4.6599314689092E-01
(PID.TID 0000.0001) %MON obc_W_salt_max               =   3.5867257914803E+01
(PID.TID 0000.0001) %MON obc_W_salt_min               =   3.3295025075312E+01
(PID.TID 0000.0001) %MON obc_W_salt_mean              =   3.4957945462693E+01
(PID.TID 0000.0001) %MON obc_W_salt_sd                =   2.4692817870140E-01
(PID.TID 0000.0001) %MON obc_N_salt_max               =   3.5910866831232E+01
(PID.TID 0000.0001) %MON obc_N_salt_min               =   3.4917015000834E+01
(PID.TID 0000.0001) %MON obc_N_salt_mean              =   3.5230514511870E+01
(PID.TID 0000.0001) %MON obc_N_salt_sd                =   3.0056305549748E-01
(PID.TID 0000.0001) %MON obc_S_salt_max               =   3.7318332861853E+01
(PID.TID 0000.0001) %MON obc_S_salt_min               =   3.4884963777939E+01
(PID.TID 0000.0001) %MON obc_S_salt_mean              =   3.5182819841602E+01
(PID.TID 0000.0001) %MON obc_S_salt_sd                =   4.4106755765074E-01
(PID.TID 0000.0001) // =======================================================
(PID.TID 0000.0001) // End OBCS MONITOR field statistics
(PID.TID 0000.0001) // =======================================================
(PID.TID 0000.0001) // =======================================================
(PID.TID 0000.0001) // Begin MONITOR EXF statistics
(PID.TID 0000.0001) // =======================================================
(PID.TID 0000.0001) %MON exf_tsnumber                 =                     2
(PID.TID 0000.0001) %MON exf_time_sec                 =   4.8000000000000E+02
(PID.TID 0000.0001) %MON exf_ustress_max              =   5.3222547494482E-01
(PID.TID 0000.0001) %MON exf_ustress_min              =  -3.0935859926751E-01
(PID.TID 0000.0001) %MON exf_ustress_mean             =   7.2110580280651E-02
(PID.TID 0000.0001) %MON exf_ustress_sd               =   1.4158461088161E-01
(PID.TID 0000.0001) %MON exf_ustress_del2             =   2.8883718094445E-07
(PID.TID 0000.0001) %MON exf_vstress_max              =   5.9108730606594E-01
(PID.TID 0000.0001) %MON exf_vstress_min              =  -1.8192680429078E-01
(PID.TID 0000.0001) %MON exf_vstress_mean             =   9.8969293495557E-02
(PID.TID 0000.0001) %MON exf_vstress_sd               =   1.3656231047404E-01
(PID.TID 0000.0001) %MON exf_vstress_del2             =   2.5150934573302E-07
(PID.TID 0000.0001) %MON exf_hflux_max                =   1.0708345900317E+03
(PID.TID 0000.0001) %MON exf_hflux_min                =  -1.3645398928210E+02
(PID.TID 0000.0001) %MON exf_hflux_mean               =   3.2486381243177E+02
(PID.TID 0000.0001) %MON exf_hflux_sd                 =   2.1324269541860E+02
(PID.TID 0000.0001) %MON exf_hflux_del2               =   8.7028542960840E-02
(PID.TID 0000.0001) %MON exf_sflux_max                =   2.2933718237816E-07
(PID.TID 0000.0001) %MON exf_sflux_min                =  -9.8445115637170E-07
(PID.TID 0000.0001) %MON exf_sflux_mean               =   4.3057123694262E-08
(PID.TID 0000.0001) %MON exf_sflux_sd                 =   1.0565957151941E-07
(PID.TID 0000.0001) %MON exf_sflux_del2               =   2.3716977469905E-11
(PID.TID 0000.0001) %MON exf_uwind_max                =   1.6004255964726E+01
(PID.TID 0000.0001) %MON exf_uwind_min                =  -1.2950742393251E+01
(PID.TID 0000.0001) %MON exf_uwind_mean               =   2.9985763945601E+00
(PID.TID 0000.0001) %MON exf_uwind_sd                 =   6.7495611319637E+00
(PID.TID 0000.0001) %MON exf_uwind_del2               =   1.6394257045585E-03
(PID.TID 0000.0001) %MON exf_vwind_max                =   1.5032770742427E+01
(PID.TID 0000.0001) %MON exf_vwind_min                =  -1.0618945546779E+01
(PID.TID 0000.0001) %MON exf_vwind_mean               =   4.6602238284266E+00
(PID.TID 0000.0001) %MON exf_vwind_sd                 =   5.9974212969507E+00
(PID.TID 0000.0001) %MON exf_vwind_del2               =   1.6961906290879E-03
(PID.TID 0000.0001) %MON exf_wspeed_max               =   1.8467323961115E+01
(PID.TID 0000.0001) %MON exf_wspeed_min               =   2.7409226194626E-02
(PID.TID 0000.0001) %MON exf_wspeed_mean              =   9.9666466733849E+00
(PID.TID 0000.0001) %MON exf_wspeed_sd                =   3.5917597776279E+00
(PID.TID 0000.0001) %MON exf_wspeed_del2              =   2.3589115830988E-03
(PID.TID 0000.0001) %MON exf_atemp_max                =   2.9779274744266E+02
(PID.TID 0000.0001) %MON exf_atemp_min                =   2.7426283642106E+02
(PID.TID 0000.0001) %MON exf_atemp_mean               =   2.8987763912930E+02
(PID.TID 0000.0001) %MON exf_atemp_sd                 =   4.3283376571390E+00
(PID.TID 0000.0001) %MON exf_atemp_del2               =   3.7040165468096E-03
(PID.TID 0000.0001) %MON exf_aqh_max                  =   1.4696382649785E-02
(PID.TID 0000.0001) %MON exf_aqh_min                  =   3.0546884250581E-03
(PID.TID 0000.0001) %MON exf_aqh_mean                 =   9.5877617532377E-03
(PID.TID 0000.0001) %MON exf_aqh_sd                   =   2.2740573060631E-03
(PID.TID 0000.0001) %MON exf_aqh_del2                 =   2.1311737794028E-06
(PID.TID 0000.0001) %MON exf_lwflux_max               =   1.5822213789462E+02
(PID.TID 0000.0001) %MON exf_lwflux_min               =   1.4021264152048E+00
(PID.TID 0000.0001) %MON exf_lwflux_mean              =   7.2794745755057E+01
(PID.TID 0000.0001) %MON exf_lwflux_sd                =   2.7817347339355E+01
(PID.TID 0000.0001) %MON exf_lwflux_del2              =   1.7294905178534E-02
(PID.TID 0000.0001) %MON exf_evap_max                 =   2.5111034316672E-07
(PID.TID 0000.0001) %MON exf_evap_min                 =  -4.2710981415630E-08
(PID.TID 0000.0001) %MON exf_evap_mean                =   7.9994104533582E-08
(PID.TID 0000.0001) %MON exf_evap_sd                  =   5.6394026744467E-08
(PID.TID 0000.0001) %MON exf_evap_del2                =   2.1676293298210E-11
(PID.TID 0000.0001) %MON exf_precip_max               =   9.8432442534507E-07
(PID.TID 0000.0001) %MON exf_precip_min               =   0.0000000000000E+00
(PID.TID 0000.0001) %MON exf_precip_mean              =   3.5348500642884E-08
(PID.TID 0000.0001) %MON exf_precip_sd                =   7.9006904771177E-08
(PID.TID 0000.0001) %MON exf_precip_del2              =   1.7450701003022E-11
(PID.TID 0000.0001) %MON exf_swflux_max               =   0.0000000000000E+00
(PID.TID 0000.0001) %MON exf_swflux_min               =  -2.1619128466572E+01
(PID.TID 0000.0001) %MON exf_swflux_mean              =  -7.2004145163275E-01
(PID.TID 0000.0001) %MON exf_swflux_sd                =   2.2832264225169E+00
(PID.TID 0000.0001) %MON exf_swflux_del2              =   4.9388962222872E-04
(PID.TID 0000.0001) %MON exf_swdown_max               =   2.4021253851747E+01
(PID.TID 0000.0001) %MON exf_swdown_min               =   0.0000000000000E+00
(PID.TID 0000.0001) %MON exf_swdown_mean              =   8.0004605736972E-01
(PID.TID 0000.0001) %MON exf_swdown_sd                =   2.5369182472410E+00
(PID.TID 0000.0001) %MON exf_swdown_del2              =   5.4876624692080E-04
(PID.TID 0000.0001) %MON exf_lwdown_max               =   4.0196542992501E+02
(PID.TID 0000.0001) %MON exf_lwdown_min               =   2.4870413893278E+02
(PID.TID 0000.0001) %MON exf_lwdown_mean              =   3.4205369294432E+02
(PID.TID 0000.0001) %MON exf_lwdown_sd                =   2.7526656275898E+01
(PID.TID 0000.0001) %MON exf_lwdown_del2              =   7.4678945289118E-02
(PID.TID 0000.0001) %MON exf_apressure_max            =   1.0299224584630E+05
(PID.TID 0000.0001) %MON exf_apressure_min            =   9.9658924302852E+04
(PID.TID 0000.0001) %MON exf_apressure_mean           =   1.0185423862820E+05
(PID.TID 0000.0001) %MON exf_apressure_sd             =   8.4021056821745E+02
(PID.TID 0000.0001) %MON exf_apressure_del2           =   2.2282482553359E+01
(PID.TID 0000.0001) %MON exf_runoff_max               =   4.4374822325994E-08
(PID.TID 0000.0001) %MON exf_runoff_min               =   0.0000000000000E+00
(PID.TID 0000.0001) %MON exf_runoff_mean              =   1.5884801964352E-09
(PID.TID 0000.0001) %MON exf_runoff_sd                =   5.3901974500338E-09
(PID.TID 0000.0001) %MON exf_runoff_del2              =   1.2741192460478E-12
(PID.TID 0000.0001) // =======================================================
(PID.TID 0000.0001) // End MONITOR EXF statistics
(PID.TID 0000.0001) // =======================================================
 cg2d: Sum(rhs),rhsMax =   2.00362223658716E+02  4.34303496791521E-02
(PID.TID 0000.0001)      cg2d_init_res =   3.22868947020904E+00
(PID.TID 0000.0001)      cg2d_iters(min,last) =      -1     320
(PID.TID 0000.0001)      cg2d_last_res =   6.88604118056498E-12
(PID.TID 0000.0001) // =======================================================
(PID.TID 0000.0001) // Begin MONITOR dynamic field statistics
(PID.TID 0000.0001) // =======================================================
(PID.TID 0000.0001) %MON time_tsnumber                =                     3
(PID.TID 0000.0001) %MON time_secondsf                =   7.2000000000000E+02
(PID.TID 0000.0001) %MON dynstat_eta_max              =   9.5037254798741E-01
(PID.TID 0000.0001) %MON dynstat_eta_min              =  -1.5275556814975E+00
(PID.TID 0000.0001) %MON dynstat_eta_mean             =  -6.8137082354036E-03
(PID.TID 0000.0001) %MON dynstat_eta_sd               =   1.2708150904260E-01
(PID.TID 0000.0001) %MON dynstat_eta_del2             =   2.9372685877479E-06
(PID.TID 0000.0001) %MON dynstat_uvel_max             =   8.8361861932391E-01
(PID.TID 0000.0001) %MON dynstat_uvel_min             =  -1.9865951208543E+00
(PID.TID 0000.0001) %MON dynstat_uvel_mean            =   3.1685252943045E-03
(PID.TID 0000.0001) %MON dynstat_uvel_sd              =   5.0050651661261E-02
(PID.TID 0000.0001) %MON dynstat_uvel_del2            =   4.2678213700244E-07
(PID.TID 0000.0001) %MON dynstat_vvel_max             =   1.2874455275155E+00
(PID.TID 0000.0001) %MON dynstat_vvel_min             =  -9.4384025973893E-01
(PID.TID 0000.0001) %MON dynstat_vvel_mean            =   3.2249833891428E-03
(PID.TID 0000.0001) %MON dynstat_vvel_sd              =   5.0604858124558E-02
(PID.TID 0000.0001) %MON dynstat_vvel_del2            =   4.6048526619354E-07
(PID.TID 0000.0001) %MON dynstat_wvel_max             =   3.7263486810966E-02
(PID.TID 0000.0001) %MON dynstat_wvel_min             =  -3.2550964659157E-02
(PID.TID 0000.0001) %MON dynstat_wvel_mean            =  -5.5814131797966E-06
(PID.TID 0000.0001) %MON dynstat_wvel_sd              =   5.8988905392723E-04
(PID.TID 0000.0001) %MON dynstat_wvel_del2            =   8.9149595716637E-08
(PID.TID 0000.0001) %MON dynstat_theta_max            =   2.6140118835692E+01
(PID.TID 0000.0001) %MON dynstat_theta_min            =   1.4688639311130E+00
(PID.TID 0000.0001) %MON dynstat_theta_mean           =   5.5098526886676E+00
(PID.TID 0000.0001) %MON dynstat_theta_sd             =   4.7734382352254E+00
(PID.TID 0000.0001) %MON dynstat_theta_del2           =   4.0021954256828E-06
(PID.TID 0000.0001) %MON dynstat_salt_max             =   3.9180970760680E+01
(PID.TID 0000.0001) %MON dynstat_salt_min             =   3.3089992693216E+01
(PID.TID 0000.0001) %MON dynstat_salt_mean            =   3.5173370137386E+01
(PID.TID 0000.0001) %MON dynstat_salt_sd              =   3.7891303607807E-01
(PID.TID 0000.0001) %MON dynstat_salt_del2            =   4.9712925406140E-07
(PID.TID 0000.0001) %MON dynstat_sst_max              =   2.6133855421055E+01
(PID.TID 0000.0001) %MON dynstat_sst_min              =   4.0464176781484E+00
(PID.TID 0000.0001) %MON dynstat_sst_mean             =   1.9643557321610E+01
(PID.TID 0000.0001) %MON dynstat_sst_sd               =   3.6373454966018E+00
(PID.TID 0000.0001) %MON dynstat_sst_del2             =   1.9078375595368E-05
(PID.TID 0000.0001) %MON dynstat_sss_max              =   3.7335182782820E+01
(PID.TID 0000.0001) %MON dynstat_sss_min              =   3.3089992693216E+01
(PID.TID 0000.0001) %MON dynstat_sss_mean             =   3.5868173783027E+01
(PID.TID 0000.0001) %MON dynstat_sss_sd               =   4.8727959716791E-01
(PID.TID 0000.0001) %MON dynstat_sss_del2             =   4.9966423968354E-06
(PID.TID 0000.0001) %MON forcing_qnet_max             =   1.0871061247906E+03
(PID.TID 0000.0001) %MON forcing_qnet_min             =  -1.6753929541076E+02
(PID.TID 0000.0001) %MON forcing_qnet_mean            =   3.2931283863588E+02
(PID.TID 0000.0001) %MON forcing_qnet_sd              =   2.1900262667356E+02
(PID.TID 0000.0001) %MON forcing_qnet_del2            =   1.1923252438959E-03
(PID.TID 0000.0001) %MON forcing_qsw_max              =   0.0000000000000E+00
(PID.TID 0000.0001) %MON forcing_qsw_min              =  -2.1619128466572E+01
(PID.TID 0000.0001) %MON forcing_qsw_mean             =  -7.2004145163275E-01
(PID.TID 0000.0001) %MON forcing_qsw_sd               =   2.2832264225169E+00
(PID.TID 0000.0001) %MON forcing_qsw_del2             =   7.3529059086198E-06
(PID.TID 0000.0001) %MON forcing_empmr_max            =   2.2933718237816E-04
(PID.TID 0000.0001) %MON forcing_empmr_min            =  -9.8445115637170E-04
(PID.TID 0000.0001) %MON forcing_empmr_mean           =   4.3057123694262E-05
(PID.TID 0000.0001) %MON forcing_empmr_sd             =   1.0565957151941E-04
(PID.TID 0000.0001) %MON forcing_empmr_del2           =   8.4653871140692E-10
(PID.TID 0000.0001) %MON forcing_fu_max               =   5.3211832849808E-01
(PID.TID 0000.0001) %MON forcing_fu_min               =  -3.0934623509692E-01
(PID.TID 0000.0001) %MON forcing_fu_mean              =   7.2220320169591E-02
(PID.TID 0000.0001) %MON forcing_fu_sd                =   1.4159689867630E-01
(PID.TID 0000.0001) %MON forcing_fu_del2              =   2.6709131282312E-07
(PID.TID 0000.0001) %MON forcing_fv_max               =   5.9105641864837E-01
(PID.TID 0000.0001) %MON forcing_fv_min               =  -1.8192472328153E-01
(PID.TID 0000.0001) %MON forcing_fv_mean              =   9.8997283372391E-02
(PID.TID 0000.0001) %MON forcing_fv_sd                =   1.3657131299278E-01
(PID.TID 0000.0001) %MON forcing_fv_del2              =   2.3061496378232E-07
(PID.TID 0000.0001) %MON trAdv_CFL_u_max              =   1.2551982815279E-01
(PID.TID 0000.0001) %MON trAdv_CFL_v_max              =   7.8110301148208E-02
(PID.TID 0000.0001) %MON trAdv_CFL_w_max              =   5.0668829496586E-01
(PID.TID 0000.0001) %MON advcfl_uvel_max              =   1.2555750391115E-01
(PID.TID 0000.0001) %MON advcfl_vvel_max              =   7.8110302544204E-02
(PID.TID 0000.0001) %MON advcfl_wvel_max              =   5.0819182106368E-01
(PID.TID 0000.0001) %MON advcfl_W_hf_max              =   5.0970429672161E-01
(PID.TID 0000.0001) %MON pe_b_mean                    =  -1.4188354087188E-04
(PID.TID 0000.0001) %MON ke_max                       =   1.7529390707625E+00
(PID.TID 0000.0001) %MON ke_mean                      =   2.5245556776985E-03
(PID.TID 0000.0001) %MON ke_vol                       =   4.5818637829946E+16
(PID.TID 0000.0001) %MON vort_r_min                   =  -4.6735423417947E-04
(PID.TID 0000.0001) %MON vort_r_max                   =   6.0169129537903E-04
(PID.TID 0000.0001) %MON vort_a_mean                  =   8.2147629740914E-05
(PID.TID 0000.0001) %MON vort_a_sd                    =   1.0123620905873E-05
(PID.TID 0000.0001) %MON vort_p_mean                  =   8.4848852274195E-05
(PID.TID 0000.0001) %MON vort_p_sd                    =   3.4982340247452E-05
(PID.TID 0000.0001) %MON surfExpan_theta_mean         =  -1.4894580454938E-05
(PID.TID 0000.0001) %MON surfExpan_salt_mean          =  -3.8265638277997E-04
(PID.TID 0000.0001) // =======================================================
(PID.TID 0000.0001) // End MONITOR dynamic field statistics
(PID.TID 0000.0001) // =======================================================
(PID.TID 0000.0001) // =======================================================
(PID.TID 0000.0001) // Begin OBCS MONITOR field statistics
(PID.TID 0000.0001) // =======================================================
(PID.TID 0000.0001) %MON obc_E_uVel_max               =   2.6299292345618E-01
(PID.TID 0000.0001) %MON obc_E_uVel_min               =  -1.9865951208543E+00
(PID.TID 0000.0001) %MON obc_E_uVel_mean              =   1.4498483244682E-03
(PID.TID 0000.0001) %MON obc_E_uVel_sd                =   4.3917606550824E-02
(PID.TID 0000.0001) %MON obc_E_uVel_Int               =   2.8002370488642E+07
(PID.TID 0000.0001) %MON obc_W_uVel_max               =   3.2235862395922E-01
(PID.TID 0000.0001) %MON obc_W_uVel_min               =  -6.9536595617867E-01
(PID.TID 0000.0001) %MON obc_W_uVel_mean              =  -6.2652722685120E-03
(PID.TID 0000.0001) %MON obc_W_uVel_sd                =   8.7194796409167E-02
(PID.TID 0000.0001) %MON obc_W_uVel_Int               =  -3.8153204658374E+07
(PID.TID 0000.0001) %MON obc_N_vVel_max               =   3.0124318363165E-01
(PID.TID 0000.0001) %MON obc_N_vVel_min               =  -1.0300260580683E-01
(PID.TID 0000.0001) %MON obc_N_vVel_mean              =   1.8658496000889E-02
(PID.TID 0000.0001) %MON obc_N_vVel_sd                =   3.9927166647813E-02
(PID.TID 0000.0001) %MON obc_N_vVel_Int               =   1.5347456249564E+08
(PID.TID 0000.0001) %MON obc_S_vVel_max               =   5.6229875281839E-02
(PID.TID 0000.0001) %MON obc_S_vVel_min               =  -8.8065791619210E-02
(PID.TID 0000.0001) %MON obc_S_vVel_mean              =   8.0989739896276E-03
(PID.TID 0000.0001) %MON obc_S_vVel_sd                =   1.1500570370582E-02
(PID.TID 0000.0001) %MON obc_S_vVel_Int               =   9.0132668637173E+07
(PID.TID 0000.0001) %MON obc_E_theta_max              =   2.5544633062468E+01
(PID.TID 0000.0001) %MON obc_E_theta_min              =   1.4632968297484E+00
(PID.TID 0000.0001) %MON obc_E_theta_mean             =   5.4563386549040E+00
(PID.TID 0000.0001) %MON obc_E_theta_sd               =   5.6195918346039E+00
(PID.TID 0000.0001) %MON obc_W_theta_max              =   1.5386590401495E+01
(PID.TID 0000.0001) %MON obc_W_theta_min              =   1.8895908741817E+00
(PID.TID 0000.0001) %MON obc_W_theta_mean             =   4.2051913675240E+00
(PID.TID 0000.0001) %MON obc_W_theta_sd               =   2.6438723461214E+00
(PID.TID 0000.0001) %MON obc_N_theta_max              =   1.6390596738603E+01
(PID.TID 0000.0001) %MON obc_N_theta_min              =   2.0877998414389E+00
(PID.TID 0000.0001) %MON obc_N_theta_mean             =   5.8650703407785E+00
(PID.TID 0000.0001) %MON obc_N_theta_sd               =   3.8421247714785E+00
(PID.TID 0000.0001) %MON obc_S_theta_max              =   2.3211106308057E+01
(PID.TID 0000.0001) %MON obc_S_theta_min              =   1.8976913184845E+00
(PID.TID 0000.0001) %MON obc_S_theta_mean             =   5.4651379063958E+00
(PID.TID 0000.0001) %MON obc_S_theta_sd               =   4.8645267884618E+00
(PID.TID 0000.0001) %MON obc_E_salt_max               =   3.7284785765870E+01
(PID.TID 0000.0001) %MON obc_E_salt_min               =   3.4844694470478E+01
(PID.TID 0000.0001) %MON obc_E_salt_mean              =   3.5160048347315E+01
(PID.TID 0000.0001) %MON obc_E_salt_sd                =   4.6599317644801E-01
(PID.TID 0000.0001) %MON obc_W_salt_max               =   3.5867258417859E+01
(PID.TID 0000.0001) %MON obc_W_salt_min               =   3.3295030577945E+01
(PID.TID 0000.0001) %MON obc_W_salt_mean              =   3.4957944937390E+01
(PID.TID 0000.0001) %MON obc_W_salt_sd                =   2.4692744390379E-01
(PID.TID 0000.0001) %MON obc_N_salt_max               =   3.5910866422869E+01
(PID.TID 0000.0001) %MON obc_N_salt_min               =   3.4917014986909E+01
(PID.TID 0000.0001) %MON obc_N_salt_mean              =   3.5230514385655E+01
(PID.TID 0000.0001) %MON obc_N_salt_sd                =   3.0056313421852E-01
(PID.TID 0000.0001) %MON obc_S_salt_max               =   3.7318325977469E+01
(PID.TID 0000.0001) %MON obc_S_salt_min               =   3.4884963774110E+01
(PID.TID 0000.0001) %MON obc_S_salt_mean              =   3.5182819523638E+01
(PID.TID 0000.0001) %MON obc_S_salt_sd                =   4.4106652065871E-01
(PID.TID 0000.0001) // =======================================================
(PID.TID 0000.0001) // End OBCS MONITOR field statistics
(PID.TID 0000.0001) // =======================================================
(PID.TID 0000.0001) // =======================================================
(PID.TID 0000.0001) // Begin MONITOR EXF statistics
(PID.TID 0000.0001) // =======================================================
(PID.TID 0000.0001) %MON exf_tsnumber                 =                     3
(PID.TID 0000.0001) %MON exf_time_sec                 =   7.2000000000000E+02
(PID.TID 0000.0001) %MON exf_ustress_max              =   5.2872502842210E-01
(PID.TID 0000.0001) %MON exf_ustress_min              =  -3.1055901072996E-01
(PID.TID 0000.0001) %MON exf_ustress_mean             =   7.1745965880744E-02
(PID.TID 0000.0001) %MON exf_ustress_sd               =   1.4125367984846E-01
(PID.TID 0000.0001) %MON exf_ustress_del2             =   2.8797094757651E-07
(PID.TID 0000.0001) %MON exf_vstress_max              =   5.8804590801338E-01
(PID.TID 0000.0001) %MON exf_vstress_min              =  -1.8111275357702E-01
(PID.TID 0000.0001) %MON exf_vstress_mean             =   9.8666866760280E-02
(PID.TID 0000.0001) %MON exf_vstress_sd               =   1.3618482673191E-01
(PID.TID 0000.0001) %MON exf_vstress_del2             =   2.5090916237900E-07
(PID.TID 0000.0001) %MON exf_hflux_max                =   1.0686235604546E+03
(PID.TID 0000.0001) %MON exf_hflux_min                =  -1.3550571171690E+02
(PID.TID 0000.0001) %MON exf_hflux_mean               =   3.2446471954020E+02
(PID.TID 0000.0001) %MON exf_hflux_sd                 =   2.1280160269291E+02
(PID.TID 0000.0001) %MON exf_hflux_del2               =   8.6884782499071E-02
(PID.TID 0000.0001) %MON exf_sflux_max                =   2.2870293200303E-07
(PID.TID 0000.0001) %MON exf_sflux_min                =  -9.9767716249539E-07
(PID.TID 0000.0001) %MON exf_sflux_mean               =   4.2837942110644E-08
(PID.TID 0000.0001) %MON exf_sflux_sd                 =   1.0604185297214E-07
(PID.TID 0000.0001) %MON exf_sflux_del2               =   2.3756847124129E-11
(PID.TID 0000.0001) %MON exf_uwind_max                =   1.5943715592274E+01
(PID.TID 0000.0001) %MON exf_uwind_min                =  -1.2980605099784E+01
(PID.TID 0000.0001) %MON exf_uwind_mean               =   2.9888754275175E+00
(PID.TID 0000.0001) %MON exf_uwind_sd                 =   6.7508036275242E+00
(PID.TID 0000.0001) %MON exf_uwind_del2               =   1.6387108525231E-03
(PID.TID 0000.0001) %MON exf_vwind_max                =   1.5007134087275E+01
(PID.TID 0000.0001) %MON exf_vwind_min                =  -1.0594283358274E+01
(PID.TID 0000.0001) %MON exf_vwind_mean               =   4.6528398894589E+00
(PID.TID 0000.0001) %MON exf_vwind_sd                 =   5.9891212164046E+00
(PID.TID 0000.0001) %MON exf_vwind_del2               =   1.6939454122234E-03
(PID.TID 0000.0001) %MON exf_wspeed_max               =   1.8441316318225E+01
(PID.TID 0000.0001) %MON exf_wspeed_min               =   2.2457028465443E-02
(PID.TID 0000.0001) %MON exf_wspeed_mean              =   9.9580924790769E+00
(PID.TID 0000.0001) %MON exf_wspeed_sd                =   3.5863089797857E+00
(PID.TID 0000.0001) %MON exf_wspeed_del2              =   2.3568018310454E-03
(PID.TID 0000.0001) %MON exf_atemp_max                =   2.9779229341407E+02
(PID.TID 0000.0001) %MON exf_atemp_min                =   2.7427725437776E+02
(PID.TID 0000.0001) %MON exf_atemp_mean               =   2.8987771264306E+02
(PID.TID 0000.0001) %MON exf_atemp_sd                 =   4.3248406146766E+00
(PID.TID 0000.0001) %MON exf_atemp_del2               =   3.7039867819038E-03
(PID.TID 0000.0001) %MON exf_aqh_max                  =   1.4717987311623E-02
(PID.TID 0000.0001) %MON exf_aqh_min                  =   3.0626011247808E-03
(PID.TID 0000.0001) %MON exf_aqh_mean                 =   9.5873785711986E-03
(PID.TID 0000.0001) %MON exf_aqh_sd                   =   2.2715820207277E-03
(PID.TID 0000.0001) %MON exf_aqh_del2                 =   2.1310310920155E-06
(PID.TID 0000.0001) %MON exf_lwflux_max               =   1.5800823119779E+02
(PID.TID 0000.0001) %MON exf_lwflux_min               =   1.1951401871019E+00
(PID.TID 0000.0001) %MON exf_lwflux_mean              =   7.2783867721165E+01
(PID.TID 0000.0001) %MON exf_lwflux_sd                =   2.7826797552282E+01
(PID.TID 0000.0001) %MON exf_lwflux_del2              =   1.7292022855363E-02
(PID.TID 0000.0001) %MON exf_evap_max                 =   2.5058735597749E-07
(PID.TID 0000.0001) %MON exf_evap_min                 =  -4.2512459392770E-08
(PID.TID 0000.0001) %MON exf_evap_mean                =   7.9869781175505E-08
(PID.TID 0000.0001) %MON exf_evap_sd                  =   5.6265096139988E-08
(PID.TID 0000.0001) %MON exf_evap_del2                =   2.1634901983578E-11
(PID.TID 0000.0001) %MON exf_precip_max               =   9.9743473490840E-07
(PID.TID 0000.0001) %MON exf_precip_min               =   0.0000000000000E+00
(PID.TID 0000.0001) %MON exf_precip_mean              =   3.5443358868425E-08
(PID.TID 0000.0001) %MON exf_precip_sd                =   7.9474014934460E-08
(PID.TID 0000.0001) %MON exf_precip_del2              =   1.7537844884405E-11
(PID.TID 0000.0001) %MON exf_swflux_max               =   0.0000000000000E+00
(PID.TID 0000.0001) %MON exf_swflux_min               =  -2.0564536834056E+01
(PID.TID 0000.0001) %MON exf_swflux_mean              =  -6.8491747838237E-01
(PID.TID 0000.0001) %MON exf_swflux_sd                =   2.1718495238575E+00
(PID.TID 0000.0001) %MON exf_swflux_del2              =   4.6979744553463E-04
(PID.TID 0000.0001) %MON exf_swdown_max               =   2.2849485371174E+01
(PID.TID 0000.0001) %MON exf_swdown_min               =   0.0000000000000E+00
(PID.TID 0000.0001) %MON exf_swdown_mean              =   7.6101942042485E-01
(PID.TID 0000.0001) %MON exf_swdown_sd                =   2.4131661376194E+00
(PID.TID 0000.0001) %MON exf_swdown_del2              =   5.2199716170515E-04
(PID.TID 0000.0001) %MON exf_lwdown_max               =   4.0206742365937E+02
(PID.TID 0000.0001) %MON exf_lwdown_min               =   2.4875067316715E+02
(PID.TID 0000.0001) %MON exf_lwdown_mean              =   3.4205467102538E+02
(PID.TID 0000.0001) %MON exf_lwdown_sd                =   2.7520541741766E+01
(PID.TID 0000.0001) %MON exf_lwdown_del2              =   7.4679419140591E-02
(PID.TID 0000.0001) %MON exf_apressure_max            =   1.0298961137477E+05
(PID.TID 0000.0001) %MON exf_apressure_min            =   9.9657803720354E+04
(PID.TID 0000.0001) %MON exf_apressure_mean           =   1.0185260492057E+05
(PID.TID 0000.0001) %MON exf_apressure_sd             =   8.3962571219697E+02
(PID.TID 0000.0001) %MON exf_apressure_del2           =   2.2282134493946E+01
(PID.TID 0000.0001) %MON exf_runoff_max               =   4.4374822325994E-08
(PID.TID 0000.0001) %MON exf_runoff_min               =   0.0000000000000E+00
(PID.TID 0000.0001) %MON exf_runoff_mean              =   1.5884801964352E-09
(PID.TID 0000.0001) %MON exf_runoff_sd                =   5.3901974500338E-09
(PID.TID 0000.0001) %MON exf_runoff_del2              =   1.2741192460478E-12
(PID.TID 0000.0001) // =======================================================
(PID.TID 0000.0001) // End MONITOR EXF statistics
(PID.TID 0000.0001) // =======================================================
 cg2d: Sum(rhs),rhsMax =   2.95182478474825E+02  4.96978443576679E-02
(PID.TID 0000.0001)      cg2d_init_res =   2.16001992489178E+00
(PID.TID 0000.0001)      cg2d_iters(min,last) =      -1     318
(PID.TID 0000.0001)      cg2d_last_res =   6.81778594809586E-12
(PID.TID 0000.0001) // =======================================================
(PID.TID 0000.0001) // Begin MONITOR dynamic field statistics
(PID.TID 0000.0001) // =======================================================
(PID.TID 0000.0001) %MON time_tsnumber                =                     4
(PID.TID 0000.0001) %MON time_secondsf                =   9.6000000000000E+02
(PID.TID 0000.0001) %MON dynstat_eta_max              =   1.0127901846718E+00
(PID.TID 0000.0001) %MON dynstat_eta_min              =  -1.4914035054498E+00
(PID.TID 0000.0001) %MON dynstat_eta_mean             =  -1.0038255953660E-02
(PID.TID 0000.0001) %MON dynstat_eta_sd               =   1.5108258008703E-01
(PID.TID 0000.0001) %MON dynstat_eta_del2             =   2.7485008142900E-06
(PID.TID 0000.0001) %MON dynstat_uvel_max             =   8.8521034612786E-01
(PID.TID 0000.0001) %MON dynstat_uvel_min             =  -2.0508235385517E+00
(PID.TID 0000.0001) %MON dynstat_uvel_mean            =   3.6141548394796E-03
(PID.TID 0000.0001) %MON dynstat_uvel_sd              =   5.0035094395262E-02
(PID.TID 0000.0001) %MON dynstat_uvel_del2            =   4.2671661925772E-07
(PID.TID 0000.0001) %MON dynstat_vvel_max             =   1.2920654350823E+00
(PID.TID 0000.0001) %MON dynstat_vvel_min             =  -1.0237970025076E+00
(PID.TID 0000.0001) %MON dynstat_vvel_mean            =   3.4996459753802E-03
(PID.TID 0000.0001) %MON dynstat_vvel_sd              =   5.0729277840514E-02
(PID.TID 0000.0001) %MON dynstat_vvel_del2            =   4.6224091032912E-07
(PID.TID 0000.0001) %MON dynstat_wvel_max             =   3.7315345069121E-02
(PID.TID 0000.0001) %MON dynstat_wvel_min             =  -3.1700720809090E-02
(PID.TID 0000.0001) %MON dynstat_wvel_mean            =  -6.7971195907603E-06
(PID.TID 0000.0001) %MON dynstat_wvel_sd              =   5.8904251129283E-04
(PID.TID 0000.0001) %MON dynstat_wvel_del2            =   8.5580648087024E-08
(PID.TID 0000.0001) %MON dynstat_theta_max            =   2.6139420482088E+01
(PID.TID 0000.0001) %MON dynstat_theta_min            =   1.4688640595939E+00
(PID.TID 0000.0001) %MON dynstat_theta_mean           =   5.5098460516793E+00
(PID.TID 0000.0001) %MON dynstat_theta_sd             =   4.7734092132474E+00
(PID.TID 0000.0001) %MON dynstat_theta_del2           =   4.0041671007150E-06
(PID.TID 0000.0001) %MON dynstat_salt_max             =   3.9178848349348E+01
(PID.TID 0000.0001) %MON dynstat_salt_min             =   3.3090137429826E+01
(PID.TID 0000.0001) %MON dynstat_salt_mean            =   3.5173369010231E+01
(PID.TID 0000.0001) %MON dynstat_salt_sd              =   3.7891230324706E-01
(PID.TID 0000.0001) %MON dynstat_salt_del2            =   4.9971662734795E-07
(PID.TID 0000.0001) %MON dynstat_sst_max              =   2.6132058143411E+01
(PID.TID 0000.0001) %MON dynstat_sst_min              =   4.0315283508435E+00
(PID.TID 0000.0001) %MON dynstat_sst_mean             =   1.9642033853627E+01
(PID.TID 0000.0001) %MON dynstat_sst_sd               =   3.6370634410178E+00
(PID.TID 0000.0001) %MON dynstat_sst_del2             =   1.9077695648174E-05
(PID.TID 0000.0001) %MON dynstat_sss_max              =   3.7335206254055E+01
(PID.TID 0000.0001) %MON dynstat_sss_min              =   3.3090137429826E+01
(PID.TID 0000.0001) %MON dynstat_sss_mean             =   3.5868231996780E+01
(PID.TID 0000.0001) %MON dynstat_sss_sd               =   4.8730386343801E-01
(PID.TID 0000.0001) %MON dynstat_sss_del2             =   4.9845397637655E-06
(PID.TID 0000.0001) %MON forcing_qnet_max             =   1.0848329458855E+03
(PID.TID 0000.0001) %MON forcing_qnet_min             =  -1.6932444592349E+02
(PID.TID 0000.0001) %MON forcing_qnet_mean            =   3.2889581840840E+02
(PID.TID 0000.0001) %MON forcing_qnet_sd              =   2.1856770561540E+02
(PID.TID 0000.0001) %MON forcing_qnet_del2            =   1.1896008722981E-03
(PID.TID 0000.0001) %MON forcing_qsw_max              =   0.0000000000000E+00
(PID.TID 0000.0001) %MON forcing_qsw_min              =  -2.0564536834056E+01
(PID.TID 0000.0001) %MON forcing_qsw_mean             =  -6.8491747838237E-01
(PID.TID 0000.0001) %MON forcing_qsw_sd               =   2.1718495238575E+00
(PID.TID 0000.0001) %MON forcing_qsw_del2             =   6.9942275716139E-06
(PID.TID 0000.0001) %MON forcing_empmr_max            =   2.2870293200303E-04
(PID.TID 0000.0001) %MON forcing_empmr_min            =  -9.9767716249539E-04
(PID.TID 0000.0001) %MON forcing_empmr_mean           =   4.2837942110645E-05
(PID.TID 0000.0001) %MON forcing_empmr_sd             =   1.0604185297214E-04
(PID.TID 0000.0001) %MON forcing_empmr_del2           =   8.5575423407279E-10
(PID.TID 0000.0001) %MON forcing_fu_max               =   5.2866088156317E-01
(PID.TID 0000.0001) %MON forcing_fu_min               =  -3.1054008272454E-01
(PID.TID 0000.0001) %MON forcing_fu_mean              =   7.1855102194668E-02
(PID.TID 0000.0001) %MON forcing_fu_sd                =   1.4126567347175E-01
(PID.TID 0000.0001) %MON forcing_fu_del2              =   2.6728816802739E-07
(PID.TID 0000.0001) %MON forcing_fv_max               =   5.8801538537365E-01
(PID.TID 0000.0001) %MON forcing_fv_min               =  -1.8111029349856E-01
(PID.TID 0000.0001) %MON forcing_fv_mean              =   9.8694610999944E-02
(PID.TID 0000.0001) %MON forcing_fv_sd                =   1.3619387047485E-01
(PID.TID 0000.0001) %MON forcing_fv_del2              =   2.2949143076146E-07
(PID.TID 0000.0001) %MON trAdv_CFL_u_max              =   1.2957799776535E-01
(PID.TID 0000.0001) %MON trAdv_CFL_v_max              =   7.8390594460513E-02
(PID.TID 0000.0001) %MON trAdv_CFL_w_max              =   4.8991358995737E-01
(PID.TID 0000.0001) %MON advcfl_uvel_max              =   1.2961689161506E-01
(PID.TID 0000.0001) %MON advcfl_vvel_max              =   7.8390595861518E-02
(PID.TID 0000.0001) %MON advcfl_wvel_max              =   4.9136733948247E-01
(PID.TID 0000.0001) %MON advcfl_W_hf_max              =   4.9282974227855E-01
(PID.TID 0000.0001) %MON pe_b_mean                    =  -2.1096947275338E-04
(PID.TID 0000.0001) %MON ke_max                       =   1.8774844188317E+00
(PID.TID 0000.0001) %MON ke_mean                      =   2.5324603763378E-03
(PID.TID 0000.0001) %MON ke_vol                       =   4.5818637829946E+16
(PID.TID 0000.0001) %MON vort_r_min                   =  -4.8731494134979E-04
(PID.TID 0000.0001) %MON vort_r_max                   =   5.7454345464137E-04
(PID.TID 0000.0001) %MON vort_a_mean                  =   8.2147628992029E-05
(PID.TID 0000.0001) %MON vort_a_sd                    =   1.0125242630330E-05
(PID.TID 0000.0001) %MON vort_p_mean                  =   8.4848851500685E-05
(PID.TID 0000.0001) %MON vort_p_sd                    =   3.4980443790457E-05
(PID.TID 0000.0001) %MON surfExpan_theta_mean         =  -5.5608260558248E-05
(PID.TID 0000.0001) %MON surfExpan_salt_mean          =  -4.5580172181870E-04
(PID.TID 0000.0001) // =======================================================
(PID.TID 0000.0001) // End MONITOR dynamic field statistics
(PID.TID 0000.0001) // =======================================================
(PID.TID 0000.0001) // =======================================================
(PID.TID 0000.0001) // Begin OBCS MONITOR field statistics
(PID.TID 0000.0001) // =======================================================
(PID.TID 0000.0001) %MON obc_E_uVel_max               =   2.6312092274101E-01
(PID.TID 0000.0001) %MON obc_E_uVel_min               =  -2.0508235385517E+00
(PID.TID 0000.0001) %MON obc_E_uVel_mean              =   1.9625786094025E-03
(PID.TID 0000.0001) %MON obc_E_uVel_sd                =   4.3998852567730E-02
(PID.TID 0000.0001) %MON obc_E_uVel_Int               =   3.7905243194132E+07
(PID.TID 0000.0001) %MON obc_W_uVel_max               =   3.2249830249386E-01
(PID.TID 0000.0001) %MON obc_W_uVel_min               =  -6.9528294482211E-01
(PID.TID 0000.0001) %MON obc_W_uVel_mean              =  -6.0876430130846E-03
(PID.TID 0000.0001) %MON obc_W_uVel_sd                =   8.7074537625573E-02
(PID.TID 0000.0001) %MON obc_W_uVel_Int               =  -3.7071507799054E+07
(PID.TID 0000.0001) %MON obc_N_vVel_max               =   3.0171528156779E-01
(PID.TID 0000.0001) %MON obc_N_vVel_min               =  -1.0259089792463E-01
(PID.TID 0000.0001) %MON obc_N_vVel_mean              =   1.8902505943174E-02
(PID.TID 0000.0001) %MON obc_N_vVel_sd                =   4.0051257229696E-02
(PID.TID 0000.0001) %MON obc_N_vVel_Int               =   1.5548165455360E+08
(PID.TID 0000.0001) %MON obc_S_vVel_max               =   5.5391741182866E-02
(PID.TID 0000.0001) %MON obc_S_vVel_min               =  -8.8543438189691E-02
(PID.TID 0000.0001) %MON obc_S_vVel_mean              =   7.0641550014919E-03
(PID.TID 0000.0001) %MON obc_S_vVel_sd                =   1.1480893232013E-02
(PID.TID 0000.0001) %MON obc_S_vVel_Int               =   7.8616271982912E+07
(PID.TID 0000.0001) %MON obc_E_theta_max              =   2.5544530313689E+01
(PID.TID 0000.0001) %MON obc_E_theta_min              =   1.4632972260357E+00
(PID.TID 0000.0001) %MON obc_E_theta_mean             =   5.4563383168482E+00
(PID.TID 0000.0001) %MON obc_E_theta_sd               =   5.6195882208931E+00
(PID.TID 0000.0001) %MON obc_W_theta_max              =   1.5386470487883E+01
(PID.TID 0000.0001) %MON obc_W_theta_min              =   1.8895909232471E+00
(PID.TID 0000.0001) %MON obc_W_theta_mean             =   4.2051791470051E+00
(PID.TID 0000.0001) %MON obc_W_theta_sd               =   2.6438521006924E+00
(PID.TID 0000.0001) %MON obc_N_theta_max              =   1.6390508636415E+01
(PID.TID 0000.0001) %MON obc_N_theta_min              =   2.0877965662650E+00
(PID.TID 0000.0001) %MON obc_N_theta_mean             =   5.8650665371866E+00
(PID.TID 0000.0001) %MON obc_N_theta_sd               =   3.8421188796415E+00
(PID.TID 0000.0001) %MON obc_S_theta_max              =   2.3211022370965E+01
(PID.TID 0000.0001) %MON obc_S_theta_min              =   1.8976913077467E+00
(PID.TID 0000.0001) %MON obc_S_theta_mean             =   5.4651362909555E+00
(PID.TID 0000.0001) %MON obc_S_theta_sd               =   4.8645223754256E+00
(PID.TID 0000.0001) %MON obc_E_salt_max               =   3.7284773696353E+01
(PID.TID 0000.0001) %MON obc_E_salt_min               =   3.4844694522698E+01
(PID.TID 0000.0001) %MON obc_E_salt_mean              =   3.5160048417173E+01
(PID.TID 0000.0001) %MON obc_E_salt_sd                =   4.6599320601514E-01
(PID.TID 0000.0001) %MON obc_W_salt_max               =   3.5867258920915E+01
(PID.TID 0000.0001) %MON obc_W_salt_min               =   3.3295036080578E+01
(PID.TID 0000.0001) %MON obc_W_salt_mean              =   3.4957944412087E+01
(PID.TID 0000.0001) %MON obc_W_salt_sd                =   2.4692670917984E-01
(PID.TID 0000.0001) %MON obc_N_salt_max               =   3.5910866014505E+01
(PID.TID 0000.0001) %MON obc_N_salt_min               =   3.4917014972984E+01
(PID.TID 0000.0001) %MON obc_N_salt_mean              =   3.5230514259441E+01
(PID.TID 0000.0001) %MON obc_N_salt_sd                =   3.0056321296559E-01
(PID.TID 0000.0001) %MON obc_S_salt_max               =   3.7318319093085E+01
(PID.TID 0000.0001) %MON obc_S_salt_min               =   3.4884963770280E+01
(PID.TID 0000.0001) %MON obc_S_salt_mean              =   3.5182819205673E+01
(PID.TID 0000.0001) %MON obc_S_salt_sd                =   4.4106548367833E-01
(PID.TID 0000.0001) // =======================================================
(PID.TID 0000.0001) // End OBCS MONITOR field statistics
(PID.TID 0000.0001) // =======================================================
(PID.TID 0000.0001) // =======================================================
(PID.TID 0000.0001) // Begin MONITOR EXF statistics
(PID.TID 0000.0001) // =======================================================
(PID.TID 0000.0001) %MON exf_tsnumber                 =                     4
(PID.TID 0000.0001) %MON exf_time_sec                 =   9.6000000000000E+02
(PID.TID 0000.0001) %MON exf_ustress_max              =   5.2532918066136E-01
(PID.TID 0000.0001) %MON exf_ustress_min              =  -3.1195189842669E-01
(PID.TID 0000.0001) %MON exf_ustress_mean             =   7.1400276586977E-02
(PID.TID 0000.0001) %MON exf_ustress_sd               =   1.4097241282919E-01
(PID.TID 0000.0001) %MON exf_ustress_del2             =   2.8762735950762E-07
(PID.TID 0000.0001) %MON exf_vstress_max              =   5.8525781913866E-01
(PID.TID 0000.0001) %MON exf_vstress_min              =  -1.8040587529947E-01
(PID.TID 0000.0001) %MON exf_vstress_mean             =   9.8387248294900E-02
(PID.TID 0000.0001) %MON exf_vstress_sd               =   1.3585373905787E-01
(PID.TID 0000.0001) %MON exf_vstress_del2             =   2.5038837188328E-07
(PID.TID 0000.0001) %MON exf_hflux_max                =   1.0667595892145E+03
(PID.TID 0000.0001) %MON exf_hflux_min                =  -1.3460165496736E+02
(PID.TID 0000.0001) %MON exf_hflux_mean               =   3.2411005625572E+02
(PID.TID 0000.0001) %MON exf_hflux_sd                 =   2.1240282320427E+02
(PID.TID 0000.0001) %MON exf_hflux_del2               =   8.6755732490915E-02
(PID.TID 0000.0001) %MON exf_sflux_max                =   2.2814389460784E-07
(PID.TID 0000.0001) %MON exf_sflux_min                =  -1.0108914786219E-06
(PID.TID 0000.0001) %MON exf_sflux_mean               =   4.2631533671731E-08
(PID.TID 0000.0001) %MON exf_sflux_sd                 =   1.0645754587864E-07
(PID.TID 0000.0001) %MON exf_sflux_del2               =   2.3804554931860E-11
(PID.TID 0000.0001) %MON exf_uwind_max                =   1.5885267804592E+01
(PID.TID 0000.0001) %MON exf_uwind_min                =  -1.3013134714967E+01
(PID.TID 0000.0001) %MON exf_uwind_mean               =   2.9794459342565E+00
(PID.TID 0000.0001) %MON exf_uwind_sd                 =   6.7526976632631E+00
(PID.TID 0000.0001) %MON exf_uwind_del2               =   1.6381672248043E-03
(PID.TID 0000.0001) %MON exf_vwind_max                =   1.4982162686968E+01
(PID.TID 0000.0001) %MON exf_vwind_min                =  -1.0571112529403E+01
(PID.TID 0000.0001) %MON exf_vwind_mean               =   4.6457779937718E+00
(PID.TID 0000.0001) %MON exf_vwind_sd                 =   5.9815328556645E+00
(PID.TID 0000.0001) %MON exf_vwind_del2               =   1.6918658316851E-03
(PID.TID 0000.0001) %MON exf_wspeed_max               =   1.8418521130976E+01
(PID.TID 0000.0001) %MON exf_wspeed_min               =   6.3142795683149E-02
(PID.TID 0000.0001) %MON exf_wspeed_mean              =   9.9504276950083E+00
(PID.TID 0000.0001) %MON exf_wspeed_sd                =   3.5814802755030E+00
(PID.TID 0000.0001) %MON exf_wspeed_del2              =   2.3549304948254E-03
(PID.TID 0000.0001) %MON exf_atemp_max                =   2.9779183938548E+02
(PID.TID 0000.0001) %MON exf_atemp_min                =   2.7428838153091E+02
(PID.TID 0000.0001) %MON exf_atemp_mean               =   2.8987778615683E+02
(PID.TID 0000.0001) %MON exf_atemp_sd                 =   4.3213770345995E+00
(PID.TID 0000.0001) %MON exf_atemp_del2               =   3.7039591979174E-03
(PID.TID 0000.0001) %MON exf_aqh_max                  =   1.4739591973461E-02
(PID.TID 0000.0001) %MON exf_aqh_min                  =   3.0705138245035E-03
(PID.TID 0000.0001) %MON exf_aqh_mean                 =   9.5869953891595E-03
(PID.TID 0000.0001) %MON exf_aqh_sd                   =   2.2691537216705E-03
(PID.TID 0000.0001) %MON exf_aqh_del2                 =   2.1308910524166E-06
(PID.TID 0000.0001) %MON exf_lwflux_max               =   1.5779521158305E+02
(PID.TID 0000.0001) %MON exf_lwflux_min               =   9.8813502769439E-01
(PID.TID 0000.0001) %MON exf_lwflux_mean              =   7.2774444501071E+01
(PID.TID 0000.0001) %MON exf_lwflux_sd                =   2.7839812772511E+01
(PID.TID 0000.0001) %MON exf_lwflux_del2              =   1.7289746475165E-02
(PID.TID 0000.0001) %MON exf_evap_max                 =   2.5015271907100E-07
(PID.TID 0000.0001) %MON exf_evap_min                 =  -4.2338326169638E-08
(PID.TID 0000.0001) %MON exf_evap_mean                =   7.9758230962132E-08
(PID.TID 0000.0001) %MON exf_evap_sd                  =   5.6147630727956E-08
(PID.TID 0000.0001) %MON exf_evap_del2                =   2.1597552994262E-11
(PID.TID 0000.0001) %MON exf_precip_max               =   1.0105450444717E-06
(PID.TID 0000.0001) %MON exf_precip_min               =   0.0000000000000E+00
(PID.TID 0000.0001) %MON exf_precip_mean              =   3.5538217093966E-08
(PID.TID 0000.0001) %MON exf_precip_sd                =   7.9974720417268E-08
(PID.TID 0000.0001) %MON exf_precip_del2              =   1.7631379788377E-11
(PID.TID 0000.0001) %MON exf_swflux_max               =   0.0000000000000E+00
(PID.TID 0000.0001) %MON exf_swflux_min               =  -1.9509945201541E+01
(PID.TID 0000.0001) %MON exf_swflux_mean              =  -6.4979350513199E-01
(PID.TID 0000.0001) %MON exf_swflux_sd                =   2.0604726251981E+00
(PID.TID 0000.0001) %MON exf_swflux_del2              =   4.4570526884055E-04
(PID.TID 0000.0001) %MON exf_swdown_max               =   2.1677716890601E+01
(PID.TID 0000.0001) %MON exf_swdown_min               =   0.0000000000000E+00
(PID.TID 0000.0001) %MON exf_swdown_mean              =   7.2199278347999E-01
(PID.TID 0000.0001) %MON exf_swdown_sd                =   2.2894140279979E+00
(PID.TID 0000.0001) %MON exf_swdown_del2              =   4.9522807648950E-04
(PID.TID 0000.0001) %MON exf_lwdown_max               =   4.0216941739373E+02
(PID.TID 0000.0001) %MON exf_lwdown_min               =   2.4879720740152E+02
(PID.TID 0000.0001) %MON exf_lwdown_mean              =   3.4205564910644E+02
(PID.TID 0000.0001) %MON exf_lwdown_sd                =   2.7517617072226E+01
(PID.TID 0000.0001) %MON exf_lwdown_del2              =   7.4679955551866E-02
(PID.TID 0000.0001) %MON exf_apressure_max            =   1.0298704972546E+05
(PID.TID 0000.0001) %MON exf_apressure_min            =   9.9656683137855E+04
(PID.TID 0000.0001) %MON exf_apressure_mean           =   1.0185097121294E+05
(PID.TID 0000.0001) %MON exf_apressure_sd             =   8.3904589890043E+02
(PID.TID 0000.0001) %MON exf_apressure_del2           =   2.2281786444865E+01
(PID.TID 0000.0001) %MON exf_runoff_max               =   4.4374822325994E-08
(PID.TID 0000.0001) %MON exf_runoff_min               =   0.0000000000000E+00
(PID.TID 0000.0001) %MON exf_runoff_mean              =   1.5884801964352E-09
(PID.TID 0000.0001) %MON exf_runoff_sd                =   5.3901974500338E-09
(PID.TID 0000.0001) %MON exf_runoff_del2              =   1.2741192460478E-12
(PID.TID 0000.0001) // =======================================================
(PID.TID 0000.0001) // End MONITOR EXF statistics
(PID.TID 0000.0001) // =======================================================
 cg2d: Sum(rhs),rhsMax =   4.03840633071100E+02  5.49094116212259E-02
(PID.TID 0000.0001)      cg2d_init_res =   1.84657312076182E+00
(PID.TID 0000.0001)      cg2d_iters(min,last) =      -1     317
(PID.TID 0000.0001)      cg2d_last_res =   6.60396405692538E-12
(PID.TID 0000.0001) // =======================================================
(PID.TID 0000.0001) // Begin MONITOR dynamic field statistics
(PID.TID 0000.0001) // =======================================================
(PID.TID 0000.0001) %MON time_tsnumber                =                     5
(PID.TID 0000.0001) %MON time_secondsf                =   1.2000000000000E+03
(PID.TID 0000.0001) %MON dynstat_eta_max              =   1.0338475396657E+00
(PID.TID 0000.0001) %MON dynstat_eta_min              =  -1.4223610918109E+00
(PID.TID 0000.0001) %MON dynstat_eta_mean             =  -1.3733388445689E-02
(PID.TID 0000.0001) %MON dynstat_eta_sd               =   1.7070695796463E-01
(PID.TID 0000.0001) %MON dynstat_eta_del2             =   2.5031744830313E-06
(PID.TID 0000.0001) %MON dynstat_uvel_max             =   8.8652245743766E-01
(PID.TID 0000.0001) %MON dynstat_uvel_min             =  -2.1146570329188E+00
(PID.TID 0000.0001) %MON dynstat_uvel_mean            =   4.0283776651537E-03
(PID.TID 0000.0001) %MON dynstat_uvel_sd              =   5.0060211059215E-02
(PID.TID 0000.0001) %MON dynstat_uvel_del2            =   4.2999482035774E-07
(PID.TID 0000.0001) %MON dynstat_vvel_max             =   1.2951948922373E+00
(PID.TID 0000.0001) %MON dynstat_vvel_min             =  -9.8516294468666E-01
(PID.TID 0000.0001) %MON dynstat_vvel_mean            =   3.7403946163564E-03
(PID.TID 0000.0001) %MON dynstat_vvel_sd              =   5.0817426818382E-02
(PID.TID 0000.0001) %MON dynstat_vvel_del2            =   4.6540285104353E-07
(PID.TID 0000.0001) %MON dynstat_wvel_max             =   3.7089209182099E-02
(PID.TID 0000.0001) %MON dynstat_wvel_min             =  -3.1013855473704E-02
(PID.TID 0000.0001) %MON dynstat_wvel_mean            =  -8.0044556306437E-06
(PID.TID 0000.0001) %MON dynstat_wvel_sd              =   5.8756239720821E-04
(PID.TID 0000.0001) %MON dynstat_wvel_del2            =   8.0876533573058E-08
(PID.TID 0000.0001) %MON dynstat_theta_max            =   2.6138683442300E+01
(PID.TID 0000.0001) %MON dynstat_theta_min            =   1.4688641963708E+00
(PID.TID 0000.0001) %MON dynstat_theta_mean           =   5.5098412492108E+00
(PID.TID 0000.0001) %MON dynstat_theta_sd             =   4.7733829859840E+00
(PID.TID 0000.0001) %MON dynstat_theta_del2           =   4.0080010909520E-06
(PID.TID 0000.0001) %MON dynstat_salt_max             =   3.9176400597244E+01
(PID.TID 0000.0001) %MON dynstat_salt_min             =   3.3090283642553E+01
(PID.TID 0000.0001) %MON dynstat_salt_mean            =   3.5173368082362E+01
(PID.TID 0000.0001) %MON dynstat_salt_sd              =   3.7891207382951E-01
(PID.TID 0000.0001) %MON dynstat_salt_del2            =   5.0302117547624E-07
(PID.TID 0000.0001) %MON dynstat_sst_max              =   2.6130407503268E+01
(PID.TID 0000.0001) %MON dynstat_sst_min              =   4.0165866590323E+00
(PID.TID 0000.0001) %MON dynstat_sst_mean             =   1.9640696496775E+01
(PID.TID 0000.0001) %MON dynstat_sst_sd               =   3.6368270075834E+00
(PID.TID 0000.0001) %MON dynstat_sst_del2             =   1.9086977093562E-05
(PID.TID 0000.0001) %MON dynstat_sss_max              =   3.7335233109484E+01
(PID.TID 0000.0001) %MON dynstat_sss_min              =   3.3090283642553E+01
(PID.TID 0000.0001) %MON dynstat_sss_mean             =   3.5868284964652E+01
(PID.TID 0000.0001) %MON dynstat_sss_sd               =   4.8732566867145E-01
(PID.TID 0000.0001) %MON dynstat_sss_del2             =   4.9735748217831E-06
(PID.TID 0000.0001) %MON forcing_qnet_max             =   1.0829137967626E+03
(PID.TID 0000.0001) %MON forcing_qnet_min             =  -1.7110732933824E+02
(PID.TID 0000.0001) %MON forcing_qnet_mean            =   3.2852440524213E+02
(PID.TID 0000.0001) %MON forcing_qnet_sd              =   2.1817607851540E+02
(PID.TID 0000.0001) %MON forcing_qnet_del2            =   1.1876547623364E-03
(PID.TID 0000.0001) %MON forcing_qsw_max              =   0.0000000000000E+00
(PID.TID 0000.0001) %MON forcing_qsw_min              =  -1.9509945201541E+01
(PID.TID 0000.0001) %MON forcing_qsw_mean             =  -6.4979350513199E-01
(PID.TID 0000.0001) %MON forcing_qsw_sd               =   2.0604726251981E+00
(PID.TID 0000.0001) %MON forcing_qsw_del2             =   6.6355492346081E-06
(PID.TID 0000.0001) %MON forcing_empmr_max            =   2.2814389460784E-04
(PID.TID 0000.0001) %MON forcing_empmr_min            =  -1.0108914786219E-03
(PID.TID 0000.0001) %MON forcing_empmr_mean           =   4.2631533671731E-05
(PID.TID 0000.0001) %MON forcing_empmr_sd             =   1.0645754587864E-04
(PID.TID 0000.0001) %MON forcing_empmr_del2           =   8.6574281129178E-10
(PID.TID 0000.0001) %MON forcing_fu_max               =   5.2531340899513E-01
(PID.TID 0000.0001) %MON forcing_fu_min               =  -3.1191480336916E-01
(PID.TID 0000.0001) %MON forcing_fu_mean              =   7.1508823670078E-02
(PID.TID 0000.0001) %MON forcing_fu_sd                =   1.4098412035010E-01
(PID.TID 0000.0001) %MON forcing_fu_del2              =   2.6722737484107E-07
(PID.TID 0000.0001) %MON forcing_fv_max               =   5.8523034903065E-01
(PID.TID 0000.0001) %MON forcing_fv_min               =  -1.8040332384466E-01
(PID.TID 0000.0001) %MON forcing_fv_mean              =   9.8414740939402E-02
(PID.TID 0000.0001) %MON forcing_fv_sd                =   1.3586281402863E-01
(PID.TID 0000.0001) %MON forcing_fv_del2              =   2.2852575492444E-07
(PID.TID 0000.0001) %MON trAdv_CFL_u_max              =   1.3361121478035E-01
(PID.TID 0000.0001) %MON trAdv_CFL_v_max              =   7.8580461010659E-02
(PID.TID 0000.0001) %MON trAdv_CFL_w_max              =   4.6481852987995E-01
(PID.TID 0000.0001) %MON advcfl_uvel_max              =   1.3365131923170E-01
(PID.TID 0000.0001) %MON advcfl_vvel_max              =   7.8580462415058E-02
(PID.TID 0000.0001) %MON advcfl_wvel_max              =   4.6619781335140E-01
(PID.TID 0000.0001) %MON advcfl_W_hf_max              =   4.6758530684352E-01
(PID.TID 0000.0001) %MON pe_b_mean                    =  -2.9203593366227E-04
(PID.TID 0000.0001) %MON ke_max                       =   2.0237973141437E+00
(PID.TID 0000.0001) %MON ke_mean                      =   2.5405916207026E-03
(PID.TID 0000.0001) %MON ke_vol                       =   4.5818637829946E+16
(PID.TID 0000.0001) %MON vort_r_min                   =  -4.9827160621727E-04
(PID.TID 0000.0001) %MON vort_r_max                   =   5.4890939122848E-04
(PID.TID 0000.0001) %MON vort_a_mean                  =   8.2147628231700E-05
(PID.TID 0000.0001) %MON vort_a_sd                    =   1.0127585551239E-05
(PID.TID 0000.0001) %MON vort_p_mean                  =   8.4848850715355E-05
(PID.TID 0000.0001) %MON vort_p_sd                    =   3.4979499860897E-05
(PID.TID 0000.0001) %MON surfExpan_theta_mean         =  -9.7348008786643E-05
(PID.TID 0000.0001) %MON surfExpan_salt_mean          =  -5.2822202131341E-04
(PID.TID 0000.0001) // =======================================================
(PID.TID 0000.0001) // End MONITOR dynamic field statistics
(PID.TID 0000.0001) // =======================================================
(PID.TID 0000.0001) // =======================================================
(PID.TID 0000.0001) // Begin OBCS MONITOR field statistics
(PID.TID 0000.0001) // =======================================================
(PID.TID 0000.0001) %MON obc_E_uVel_max               =   2.6324203494468E-01
(PID.TID 0000.0001) %MON obc_E_uVel_min               =  -2.1146570329188E+00
(PID.TID 0000.0001) %MON obc_E_uVel_mean              =   2.4720692470062E-03
(PID.TID 0000.0001) %MON obc_E_uVel_sd                =   4.4083966400720E-02
(PID.TID 0000.0001) %MON obc_E_uVel_Int               =   4.7745545351192E+07
(PID.TID 0000.0001) %MON obc_W_uVel_max               =   3.2266129354331E-01
(PID.TID 0000.0001) %MON obc_W_uVel_min               =  -6.9518801174216E-01
(PID.TID 0000.0001) %MON obc_W_uVel_mean              =  -5.9041964589636E-03
(PID.TID 0000.0001) %MON obc_W_uVel_sd                =   8.6954346149133E-02
(PID.TID 0000.0001) %MON obc_W_uVel_Int               =  -3.5954385729447E+07
(PID.TID 0000.0001) %MON obc_N_vVel_max               =   3.0213918292370E-01
(PID.TID 0000.0001) %MON obc_N_vVel_min               =  -1.0219848899024E-01
(PID.TID 0000.0001) %MON obc_N_vVel_mean              =   1.9125811468594E-02
(PID.TID 0000.0001) %MON obc_N_vVel_sd                =   4.0167725134222E-02
(PID.TID 0000.0001) %MON obc_N_vVel_Int               =   1.5731844342527E+08
(PID.TID 0000.0001) %MON obc_S_vVel_max               =   5.4536701170186E-02
(PID.TID 0000.0001) %MON obc_S_vVel_min               =  -8.9019315971475E-02
(PID.TID 0000.0001) %MON obc_S_vVel_mean              =   6.0218594434121E-03
(PID.TID 0000.0001) %MON obc_S_vVel_sd                =   1.1459457032238E-02
(PID.TID 0000.0001) %MON obc_S_vVel_Int               =   6.7016669332167E+07
(PID.TID 0000.0001) %MON obc_E_theta_max              =   2.5544427564909E+01
(PID.TID 0000.0001) %MON obc_E_theta_min              =   1.4632976223230E+00
(PID.TID 0000.0001) %MON obc_E_theta_mean             =   5.4563379787924E+00
(PID.TID 0000.0001) %MON obc_E_theta_sd               =   5.6195846072241E+00
(PID.TID 0000.0001) %MON obc_W_theta_max              =   1.5386350574271E+01
(PID.TID 0000.0001) %MON obc_W_theta_min              =   1.8895909723125E+00
(PID.TID 0000.0001) %MON obc_W_theta_mean             =   4.2051669264862E+00
(PID.TID 0000.0001) %MON obc_W_theta_sd               =   2.6438318557462E+00
(PID.TID 0000.0001) %MON obc_N_theta_max              =   1.6390420534228E+01
(PID.TID 0000.0001) %MON obc_N_theta_min              =   2.0877932910910E+00
(PID.TID 0000.0001) %MON obc_N_theta_mean             =   5.8650627335946E+00
(PID.TID 0000.0001) %MON obc_N_theta_sd               =   3.8421129878773E+00
(PID.TID 0000.0001) %MON obc_S_theta_max              =   2.3210938433874E+01
(PID.TID 0000.0001) %MON obc_S_theta_min              =   1.8976912970089E+00
(PID.TID 0000.0001) %MON obc_S_theta_mean             =   5.4651346755151E+00
(PID.TID 0000.0001) %MON obc_S_theta_sd               =   4.8645179624137E+00
(PID.TID 0000.0001) %MON obc_E_salt_max               =   3.7284761626835E+01
(PID.TID 0000.0001) %MON obc_E_salt_min               =   3.4844694574919E+01
(PID.TID 0000.0001) %MON obc_E_salt_mean              =   3.5160048487031E+01
(PID.TID 0000.0001) %MON obc_E_salt_sd                =   4.6599323558781E-01
(PID.TID 0000.0001) %MON obc_W_salt_max               =   3.5867259423972E+01
(PID.TID 0000.0001) %MON obc_W_salt_min               =   3.3295041583212E+01
(PID.TID 0000.0001) %MON obc_W_salt_mean              =   3.4957943886784E+01
(PID.TID 0000.0001) %MON obc_W_salt_sd                =   2.4692597453041E-01
(PID.TID 0000.0001) %MON obc_N_salt_max               =   3.5910865606142E+01
(PID.TID 0000.0001) %MON obc_N_salt_min               =   3.4917014959058E+01
(PID.TID 0000.0001) %MON obc_N_salt_mean              =   3.5230514133226E+01
(PID.TID 0000.0001) %MON obc_N_salt_sd                =   3.0056329171628E-01
(PID.TID 0000.0001) %MON obc_S_salt_max               =   3.7318312208701E+01
(PID.TID 0000.0001) %MON obc_S_salt_min               =   3.4884963766451E+01
(PID.TID 0000.0001) %MON obc_S_salt_mean              =   3.5182818887709E+01
(PID.TID 0000.0001) %MON obc_S_salt_sd                =   4.4106444670916E-01
(PID.TID 0000.0001) // =======================================================
(PID.TID 0000.0001) // End OBCS MONITOR field statistics
(PID.TID 0000.0001) // =======================================================
(PID.TID 0000.0001) // =======================================================
(PID.TID 0000.0001) // Begin MONITOR EXF statistics
(PID.TID 0000.0001) // =======================================================
(PID.TID 0000.0001) %MON exf_tsnumber                 =                     5
(PID.TID 0000.0001) %MON exf_time_sec                 =   1.2000000000000E+03
(PID.TID 0000.0001) %MON exf_ustress_max              =   5.2214290893053E-01
(PID.TID 0000.0001) %MON exf_ustress_min              =  -3.1346325030274E-01
(PID.TID 0000.0001) %MON exf_ustress_mean             =   7.1068640571886E-02
(PID.TID 0000.0001) %MON exf_ustress_sd               =   1.4073192469577E-01
(PID.TID 0000.0001) %MON exf_ustress_del2             =   2.8882393798927E-07
(PID.TID 0000.0001) %MON exf_vstress_max              =   5.8267877916129E-01
(PID.TID 0000.0001) %MON exf_vstress_min              =  -1.7974843362128E-01
(PID.TID 0000.0001) %MON exf_vstress_mean             =   9.8124613124501E-02
(PID.TID 0000.0001) %MON exf_vstress_sd               =   1.3555985771819E-01
(PID.TID 0000.0001) %MON exf_vstress_del2             =   2.5097339547502E-07
(PID.TID 0000.0001) %MON exf_hflux_max                =   1.0651033005524E+03
(PID.TID 0000.0001) %MON exf_hflux_min                =  -1.3376087326439E+02
(PID.TID 0000.0001) %MON exf_hflux_mean               =   3.2378922900367E+02
(PID.TID 0000.0001) %MON exf_hflux_sd                 =   2.1203565820406E+02
(PID.TID 0000.0001) %MON exf_hflux_del2               =   8.6637582602385E-02
(PID.TID 0000.0001) %MON exf_sflux_max                =   2.2763817047084E-07
(PID.TID 0000.0001) %MON exf_sflux_min                =  -1.0241025674480E-06
(PID.TID 0000.0001) %MON exf_sflux_mean               =   4.2434854787984E-08
(PID.TID 0000.0001) %MON exf_sflux_sd                 =   1.0690472082610E-07
(PID.TID 0000.0001) %MON exf_sflux_del2               =   2.3859399552904E-11
(PID.TID 0000.0001) %MON exf_uwind_max                =   1.5827611416862E+01
(PID.TID 0000.0001) %MON exf_uwind_min                =  -1.3047173889581E+01
(PID.TID 0000.0001) %MON exf_uwind_mean               =   2.9702119576595E+00
(PID.TID 0000.0001) %MON exf_uwind_sd                 =   6.7551280691653E+00
(PID.TID 0000.0001) %MON exf_uwind_del2               =   1.6377646468058E-03
(PID.TID 0000.0001) %MON exf_vwind_max                =   1.4957009380214E+01
(PID.TID 0000.0001) %MON exf_vwind_min                =  -1.0549037128119E+01
(PID.TID 0000.0001) %MON exf_vwind_mean               =   4.6389418805909E+00
(PID.TID 0000.0001) %MON exf_vwind_sd                 =   5.9745415584110E+00
(PID.TID 0000.0001) %MON exf_vwind_del2               =   1.6899179780980E-03
(PID.TID 0000.0001) %MON exf_wspeed_max               =   1.8398333322711E+01
(PID.TID 0000.0001) %MON exf_wspeed_min               =   1.3166637104960E-02
(PID.TID 0000.0001) %MON exf_wspeed_mean              =   9.9434820324087E+00
(PID.TID 0000.0001) %MON exf_wspeed_sd                =   3.5771508187515E+00
(PID.TID 0000.0001) %MON exf_wspeed_del2              =   2.3532522884822E-03
(PID.TID 0000.0001) %MON exf_atemp_max                =   2.9779138535689E+02
(PID.TID 0000.0001) %MON exf_atemp_min                =   2.7429950868407E+02
(PID.TID 0000.0001) %MON exf_atemp_mean               =   2.8987785967059E+02
(PID.TID 0000.0001) %MON exf_atemp_sd                 =   4.3179469974317E+00
(PID.TID 0000.0001) %MON exf_atemp_del2               =   3.7039337948993E-03
(PID.TID 0000.0001) %MON exf_aqh_max                  =   1.4761196635299E-02
(PID.TID 0000.0001) %MON exf_aqh_min                  =   3.0783335271898E-03
(PID.TID 0000.0001) %MON exf_aqh_mean                 =   9.5866122071204E-03
(PID.TID 0000.0001) %MON exf_aqh_sd                   =   2.2667725598950E-03
(PID.TID 0000.0001) %MON exf_aqh_del2                 =   2.1307536611279E-06
(PID.TID 0000.0001) %MON exf_lwflux_max               =   1.5758281401983E+02
(PID.TID 0000.0001) %MON exf_lwflux_min               =   7.8110998284145E-01
(PID.TID 0000.0001) %MON exf_lwflux_mean              =   7.2766058912177E+01
(PID.TID 0000.0001) %MON exf_lwflux_sd                =   2.7856189095294E+01
(PID.TID 0000.0001) %MON exf_lwflux_del2              =   1.7287972292332E-02
(PID.TID 0000.0001) %MON exf_evap_max                 =   2.4977092524951E-07
(PID.TID 0000.0001) %MON exf_evap_min                 =  -4.2181894020530E-08
(PID.TID 0000.0001) %MON exf_evap_mean                =   7.9656410303926E-08
(PID.TID 0000.0001) %MON exf_evap_sd                  =   5.6038817123681E-08
(PID.TID 0000.0001) %MON exf_evap_del2                =   2.1563283737304E-11
(PID.TID 0000.0001) %MON exf_precip_max               =   1.0236553540350E-06
(PID.TID 0000.0001) %MON exf_precip_min               =   0.0000000000000E+00
(PID.TID 0000.0001) %MON exf_precip_mean              =   3.5633075319507E-08
(PID.TID 0000.0001) %MON exf_precip_sd                =   8.0508394404401E-08
(PID.TID 0000.0001) %MON exf_precip_del2              =   1.7731204574266E-11
(PID.TID 0000.0001) %MON exf_swflux_max               =   0.0000000000000E+00
(PID.TID 0000.0001) %MON exf_swflux_min               =  -1.8455353569025E+01
(PID.TID 0000.0001) %MON exf_swflux_mean              =  -6.1466953188161E-01
(PID.TID 0000.0001) %MON exf_swflux_sd                =   1.9490957265388E+00
(PID.TID 0000.0001) %MON exf_swflux_del2              =   4.2161309214647E-04
(PID.TID 0000.0001) %MON exf_swdown_max               =   2.0505948410028E+01
(PID.TID 0000.0001) %MON exf_swdown_min               =   0.0000000000000E+00
(PID.TID 0000.0001) %MON exf_swdown_mean              =   6.8296614653512E-01
(PID.TID 0000.0001) %MON exf_swdown_sd                =   2.1656619183764E+00
(PID.TID 0000.0001) %MON exf_swdown_del2              =   4.6845899127385E-04
(PID.TID 0000.0001) %MON exf_lwdown_max               =   4.0227141112808E+02
(PID.TID 0000.0001) %MON exf_lwdown_min               =   2.4884374163589E+02
(PID.TID 0000.0001) %MON exf_lwdown_mean              =   3.4205662718750E+02
(PID.TID 0000.0001) %MON exf_lwdown_sd                =   2.7517883284360E+01
(PID.TID 0000.0001) %MON exf_lwdown_del2              =   7.4680554521596E-02
(PID.TID 0000.0001) %MON exf_apressure_max            =   1.0298452448726E+05
(PID.TID 0000.0001) %MON exf_apressure_min            =   9.9655545885607E+04
(PID.TID 0000.0001) %MON exf_apressure_mean           =   1.0184933750531E+05
(PID.TID 0000.0001) %MON exf_apressure_sd             =   8.3847113878915E+02
(PID.TID 0000.0001) %MON exf_apressure_del2           =   2.2281438406116E+01
(PID.TID 0000.0001) %MON exf_runoff_max               =   4.4374822325994E-08
(PID.TID 0000.0001) %MON exf_runoff_min               =   0.0000000000000E+00
(PID.TID 0000.0001) %MON exf_runoff_mean              =   1.5884801964352E-09
(PID.TID 0000.0001) %MON exf_runoff_sd                =   5.3901974500338E-09
(PID.TID 0000.0001) %MON exf_runoff_del2              =   1.2741192460478E-12
(PID.TID 0000.0001) // =======================================================
(PID.TID 0000.0001) // End MONITOR EXF statistics
(PID.TID 0000.0001) // =======================================================
 cg2d: Sum(rhs),rhsMax =   5.26204313402446E+02  5.60416397502220E-02
(PID.TID 0000.0001)      cg2d_init_res =   1.61319938294694E+00
(PID.TID 0000.0001)      cg2d_iters(min,last) =      -1     316
(PID.TID 0000.0001)      cg2d_last_res =   6.87986194680408E-12
(PID.TID 0000.0001) // =======================================================
(PID.TID 0000.0001) // Begin MONITOR dynamic field statistics
(PID.TID 0000.0001) // =======================================================
(PID.TID 0000.0001) %MON time_tsnumber                =                     6
(PID.TID 0000.0001) %MON time_secondsf                =   1.4400000000000E+03
(PID.TID 0000.0001) %MON dynstat_eta_max              =   1.0285450253794E+00
(PID.TID 0000.0001) %MON dynstat_eta_min              =  -1.3325327106706E+00
(PID.TID 0000.0001) %MON dynstat_eta_mean             =  -1.7894604073881E-02
(PID.TID 0000.0001) %MON dynstat_eta_sd               =   1.8727976202357E-01
(PID.TID 0000.0001) %MON dynstat_eta_del2             =   2.3854258133539E-06
(PID.TID 0000.0001) %MON dynstat_uvel_max             =   8.8787667573164E-01
(PID.TID 0000.0001) %MON dynstat_uvel_min             =  -2.1780796058193E+00
(PID.TID 0000.0001) %MON dynstat_uvel_mean            =   4.4151983770283E-03
(PID.TID 0000.0001) %MON dynstat_uvel_sd              =   5.0117333024560E-02
(PID.TID 0000.0001) %MON dynstat_uvel_del2            =   4.3576629148454E-07
(PID.TID 0000.0001) %MON dynstat_vvel_max             =   1.2969413880596E+00
(PID.TID 0000.0001) %MON dynstat_vvel_min             =  -8.9157680484364E-01
(PID.TID 0000.0001) %MON dynstat_vvel_mean            =   3.9472517161646E-03
(PID.TID 0000.0001) %MON dynstat_vvel_sd              =   5.0874424174477E-02
(PID.TID 0000.0001) %MON dynstat_vvel_del2            =   4.7033063440620E-07
(PID.TID 0000.0001) %MON dynstat_wvel_max             =   3.6719336802932E-02
(PID.TID 0000.0001) %MON dynstat_wvel_min             =  -3.0077487839577E-02
(PID.TID 0000.0001) %MON dynstat_wvel_mean            =  -9.2019633273896E-06
(PID.TID 0000.0001) %MON dynstat_wvel_sd              =   5.8753708789565E-04
(PID.TID 0000.0001) %MON dynstat_wvel_del2            =   7.6872298471549E-08
(PID.TID 0000.0001) %MON dynstat_theta_max            =   2.6138103239960E+01
(PID.TID 0000.0001) %MON dynstat_theta_min            =   1.4688643412023E+00
(PID.TID 0000.0001) %MON dynstat_theta_mean           =   5.5098383190100E+00
(PID.TID 0000.0001) %MON dynstat_theta_sd             =   4.7733595393181E+00
(PID.TID 0000.0001) %MON dynstat_theta_del2           =   4.0121931207021E-06
(PID.TID 0000.0001) %MON dynstat_salt_max             =   3.9173637894853E+01
(PID.TID 0000.0001) %MON dynstat_salt_min             =   3.3090429331749E+01
(PID.TID 0000.0001) %MON dynstat_salt_mean            =   3.5173367344953E+01
(PID.TID 0000.0001) %MON dynstat_salt_sd              =   3.7891225387466E-01
(PID.TID 0000.0001) %MON dynstat_salt_del2            =   5.0672331191790E-07
(PID.TID 0000.0001) %MON dynstat_sst_max              =   2.6128871997827E+01
(PID.TID 0000.0001) %MON dynstat_sst_min              =   4.0015104110293E+00
(PID.TID 0000.0001) %MON dynstat_sst_mean             =   1.9639498657615E+01
(PID.TID 0000.0001) %MON dynstat_sst_sd               =   3.6366242101232E+00
(PID.TID 0000.0001) %MON dynstat_sst_del2             =   1.9101348621194E-05
(PID.TID 0000.0001) %MON dynstat_sss_max              =   3.7335263310717E+01
(PID.TID 0000.0001) %MON dynstat_sss_min              =   3.3090429331749E+01
(PID.TID 0000.0001) %MON dynstat_sss_mean             =   3.5868333497829E+01
(PID.TID 0000.0001) %MON dynstat_sss_sd               =   4.8734569313398E-01
(PID.TID 0000.0001) %MON dynstat_sss_del2             =   4.9635517959152E-06
(PID.TID 0000.0001) %MON forcing_qnet_max             =   1.0812065400009E+03
(PID.TID 0000.0001) %MON forcing_qnet_min             =  -1.7291434134888E+02
(PID.TID 0000.0001) %MON forcing_qnet_mean            =   3.2818772182058E+02
(PID.TID 0000.0001) %MON forcing_qnet_sd              =   2.1781681657710E+02
(PID.TID 0000.0001) %MON forcing_qnet_del2            =   1.1853831153539E-03
(PID.TID 0000.0001) %MON forcing_qsw_max              =   0.0000000000000E+00
(PID.TID 0000.0001) %MON forcing_qsw_min              =  -1.8455353569025E+01
(PID.TID 0000.0001) %MON forcing_qsw_mean             =  -6.1466953188161E-01
(PID.TID 0000.0001) %MON forcing_qsw_sd               =   1.9490957265388E+00
(PID.TID 0000.0001) %MON forcing_qsw_del2             =   6.2768708976022E-06
(PID.TID 0000.0001) %MON forcing_empmr_max            =   2.2763817047084E-04
(PID.TID 0000.0001) %MON forcing_empmr_min            =  -1.0241025674480E-03
(PID.TID 0000.0001) %MON forcing_empmr_mean           =   4.2434854787984E-05
(PID.TID 0000.0001) %MON forcing_empmr_sd             =   1.0690472082610E-04
(PID.TID 0000.0001) %MON forcing_empmr_del2           =   8.7666015871246E-10
(PID.TID 0000.0001) %MON forcing_fu_max               =   5.2210683516134E-01
(PID.TID 0000.0001) %MON forcing_fu_min               =  -3.1342502756039E-01
(PID.TID 0000.0001) %MON forcing_fu_mean              =   7.1176611101214E-02
(PID.TID 0000.0001) %MON forcing_fu_sd                =   1.4074335728177E-01
(PID.TID 0000.0001) %MON forcing_fu_del2              =   2.6778096595366E-07
(PID.TID 0000.0001) %MON forcing_fv_max               =   5.8265379471215E-01
(PID.TID 0000.0001) %MON forcing_fv_min               =  -1.7974747093384E-01
(PID.TID 0000.0001) %MON forcing_fv_mean              =   9.8151846323421E-02
(PID.TID 0000.0001) %MON forcing_fv_sd                =   1.3556895436274E-01
(PID.TID 0000.0001) %MON forcing_fv_del2              =   2.2817708309531E-07
(PID.TID 0000.0001) %MON trAdv_CFL_u_max              =   1.3761846838120E-01
(PID.TID 0000.0001) %MON trAdv_CFL_v_max              =   7.8686422242976E-02
(PID.TID 0000.0001) %MON trAdv_CFL_w_max              =   4.7416414295361E-01
(PID.TID 0000.0001) %MON advcfl_uvel_max              =   1.3765977564107E-01
(PID.TID 0000.0001) %MON advcfl_vvel_max              =   7.8686423649268E-02
(PID.TID 0000.0001) %MON advcfl_wvel_max              =   4.7048845192296E-01
(PID.TID 0000.0001) %MON advcfl_W_hf_max              =   4.7416414295361E-01
(PID.TID 0000.0001) %MON pe_b_mean                    =  -3.8499859251424E-04
(PID.TID 0000.0001) %MON ke_max                       =   2.1614574844648E+00
(PID.TID 0000.0001) %MON ke_mean                      =   2.5487242121494E-03
(PID.TID 0000.0001) %MON ke_vol                       =   4.5818637829946E+16
(PID.TID 0000.0001) %MON vort_r_min                   =  -5.0475389754030E-04
(PID.TID 0000.0001) %MON vort_r_max                   =   5.4365140638522E-04
(PID.TID 0000.0001) %MON vort_a_mean                  =   8.2147627460591E-05
(PID.TID 0000.0001) %MON vort_a_sd                    =   1.0130483786243E-05
(PID.TID 0000.0001) %MON vort_p_mean                  =   8.4848849918889E-05
(PID.TID 0000.0001) %MON vort_p_sd                    =   3.4979438628050E-05
(PID.TID 0000.0001) %MON surfExpan_theta_mean         =  -1.3962412317284E-04
(PID.TID 0000.0001) %MON surfExpan_salt_mean          =  -5.9983193262421E-04
(PID.TID 0000.0001) // =======================================================
(PID.TID 0000.0001) // End MONITOR dynamic field statistics
(PID.TID 0000.0001) // =======================================================
(PID.TID 0000.0001) // =======================================================
(PID.TID 0000.0001) // Begin OBCS MONITOR field statistics
(PID.TID 0000.0001) // =======================================================
(PID.TID 0000.0001) %MON obc_E_uVel_max               =   2.6335608887903E-01
(PID.TID 0000.0001) %MON obc_E_uVel_min               =  -2.1780796058193E+00
(PID.TID 0000.0001) %MON obc_E_uVel_mean              =   2.9777074807696E-03
(PID.TID 0000.0001) %MON obc_E_uVel_sd                =   4.4172899180351E-02
(PID.TID 0000.0001) %MON obc_E_uVel_Int               =   5.7511442180612E+07
(PID.TID 0000.0001) %MON obc_W_uVel_max               =   3.2284741773255E-01
(PID.TID 0000.0001) %MON obc_W_uVel_min               =  -6.9508125961288E-01
(PID.TID 0000.0001) %MON obc_W_uVel_mean              =  -5.7151384896691E-03
(PID.TID 0000.0001) %MON obc_W_uVel_sd                =   8.6834878654507E-02
(PID.TID 0000.0001) %MON obc_W_uVel_Int               =  -3.4803092204497E+07
(PID.TID 0000.0001) %MON obc_N_vVel_max               =   3.0251430900843E-01
(PID.TID 0000.0001) %MON obc_N_vVel_min               =  -1.0182582067293E-01
(PID.TID 0000.0001) %MON obc_N_vVel_mean              =   1.9328142603839E-02
(PID.TID 0000.0001) %MON obc_N_vVel_sd                =   4.0276213531706E-02
(PID.TID 0000.0001) %MON obc_N_vVel_Int               =   1.5898270845818E+08
(PID.TID 0000.0001) %MON obc_S_vVel_max               =   5.3665770948755E-02
(PID.TID 0000.0001) %MON obc_S_vVel_min               =  -8.9492847191139E-02
(PID.TID 0000.0001) %MON obc_S_vVel_mean              =   4.9733529347630E-03
(PID.TID 0000.0001) %MON obc_S_vVel_sd                =   1.1436363833016E-02
(PID.TID 0000.0001) %MON obc_S_vVel_Int               =   5.5347945635928E+07
(PID.TID 0000.0001) %MON obc_E_theta_max              =   2.5544324816130E+01
(PID.TID 0000.0001) %MON obc_E_theta_min              =   1.4632980186102E+00
(PID.TID 0000.0001) %MON obc_E_theta_mean             =   5.4563376407367E+00
(PID.TID 0000.0001) %MON obc_E_theta_sd               =   5.6195809935965E+00
(PID.TID 0000.0001) %MON obc_W_theta_max              =   1.5386230660660E+01
(PID.TID 0000.0001) %MON obc_W_theta_min              =   1.8895910213779E+00
(PID.TID 0000.0001) %MON obc_W_theta_mean             =   4.2051547059673E+00
(PID.TID 0000.0001) %MON obc_W_theta_sd               =   2.6438116112826E+00
(PID.TID 0000.0001) %MON obc_N_theta_max              =   1.6390332432041E+01
(PID.TID 0000.0001) %MON obc_N_theta_min              =   2.0877900159171E+00
(PID.TID 0000.0001) %MON obc_N_theta_mean             =   5.8650589300026E+00
(PID.TID 0000.0001) %MON obc_N_theta_sd               =   3.8421070961859E+00
(PID.TID 0000.0001) %MON obc_S_theta_max              =   2.3210854496783E+01
(PID.TID 0000.0001) %MON obc_S_theta_min              =   1.8976912862711E+00
(PID.TID 0000.0001) %MON obc_S_theta_mean             =   5.4651330600748E+00
(PID.TID 0000.0001) %MON obc_S_theta_sd               =   4.8645135494261E+00
(PID.TID 0000.0001) %MON obc_E_salt_max               =   3.7284749557318E+01
(PID.TID 0000.0001) %MON obc_E_salt_min               =   3.4844694627139E+01
(PID.TID 0000.0001) %MON obc_E_salt_mean              =   3.5160048556889E+01
(PID.TID 0000.0001) %MON obc_E_salt_sd                =   4.6599326516594E-01
(PID.TID 0000.0001) %MON obc_W_salt_max               =   3.5867259927028E+01
(PID.TID 0000.0001) %MON obc_W_salt_min               =   3.3295047085845E+01
(PID.TID 0000.0001) %MON obc_W_salt_mean              =   3.4957943361481E+01
(PID.TID 0000.0001) %MON obc_W_salt_sd                =   2.4692523995694E-01
(PID.TID 0000.0001) %MON obc_N_salt_max               =   3.5910865197779E+01
(PID.TID 0000.0001) %MON obc_N_salt_min               =   3.4917014945133E+01
(PID.TID 0000.0001) %MON obc_N_salt_mean              =   3.5230514007012E+01
(PID.TID 0000.0001) %MON obc_N_salt_sd                =   3.0056337050625E-01
(PID.TID 0000.0001) %MON obc_S_salt_max               =   3.7318305324317E+01
(PID.TID 0000.0001) %MON obc_S_salt_min               =   3.4884963762621E+01
(PID.TID 0000.0001) %MON obc_S_salt_mean              =   3.5182818569744E+01
(PID.TID 0000.0001) %MON obc_S_salt_sd                =   4.4106340975130E-01
(PID.TID 0000.0001) // =======================================================
(PID.TID 0000.0001) // End OBCS MONITOR field statistics
(PID.TID 0000.0001) // =======================================================
(PID.TID 0000.0001) // =======================================================
(PID.TID 0000.0001) // Begin MONITOR EXF statistics
(PID.TID 0000.0001) // =======================================================
(PID.TID 0000.0001) %MON exf_tsnumber                 =                     6
(PID.TID 0000.0001) %MON exf_time_sec                 =   1.4400000000000E+03
(PID.TID 0000.0001) %MON exf_ustress_max              =   5.1913316056177E-01
(PID.TID 0000.0001) %MON exf_ustress_min              =  -3.1511113938099E-01
(PID.TID 0000.0001) %MON exf_ustress_mean             =   7.0748022868869E-02
(PID.TID 0000.0001) %MON exf_ustress_sd               =   1.4052625059055E-01
(PID.TID 0000.0001) %MON exf_ustress_del2             =   2.9095259582428E-07
(PID.TID 0000.0001) %MON exf_vstress_max              =   5.8026565088485E-01
(PID.TID 0000.0001) %MON exf_vstress_min              =  -1.7911914360249E-01
(PID.TID 0000.0001) %MON exf_vstress_mean             =   9.7875239818705E-02
(PID.TID 0000.0001) %MON exf_vstress_sd               =   1.3529729200956E-01
(PID.TID 0000.0001) %MON exf_vstress_del2             =   2.5201523943945E-07
(PID.TID 0000.0001) %MON exf_hflux_max                =   1.0635703336280E+03
(PID.TID 0000.0001) %MON exf_hflux_min                =  -1.3294737072198E+02
(PID.TID 0000.0001) %MON exf_hflux_mean               =   3.2349535948233E+02
(PID.TID 0000.0001) %MON exf_hflux_sd                 =   2.1169375591109E+02
(PID.TID 0000.0001) %MON exf_hflux_del2               =   8.6528120241709E-02
(PID.TID 0000.0001) %MON exf_sflux_max                =   2.2716838746402E-07
(PID.TID 0000.0001) %MON exf_sflux_min                =  -1.0373227174866E-06
(PID.TID 0000.0001) %MON exf_sflux_mean               =   4.2245986594970E-08
(PID.TID 0000.0001) %MON exf_sflux_sd                 =   1.0738205165558E-07
(PID.TID 0000.0001) %MON exf_sflux_del2               =   2.3920896094838E-11
(PID.TID 0000.0001) %MON exf_uwind_max                =   1.5771090680203E+01
(PID.TID 0000.0001) %MON exf_uwind_min                =  -1.3082391659939E+01
(PID.TID 0000.0001) %MON exf_uwind_mean               =   2.9611254996542E+00
(PID.TID 0000.0001) %MON exf_uwind_sd                 =   6.7580116817151E+00
(PID.TID 0000.0001) %MON exf_uwind_del2               =   1.6374817427502E-03
(PID.TID 0000.0001) %MON exf_vwind_max                =   1.4931489047786E+01
(PID.TID 0000.0001) %MON exf_vwind_min                =  -1.0529002328973E+01
(PID.TID 0000.0001) %MON exf_vwind_mean               =   4.6322701391984E+00
(PID.TID 0000.0001) %MON exf_vwind_sd                 =   5.9680728492393E+00
(PID.TID 0000.0001) %MON exf_vwind_del2               =   1.6880849406656E-03
(PID.TID 0000.0001) %MON exf_wspeed_max               =   1.8380117010334E+01
(PID.TID 0000.0001) %MON exf_wspeed_min               =   3.6892079273901E-02
(PID.TID 0000.0001) %MON exf_wspeed_mean              =   9.9371395350141E+00
(PID.TID 0000.0001) %MON exf_wspeed_sd                =   3.5732428063169E+00
(PID.TID 0000.0001) %MON exf_wspeed_del2              =   2.3517403059363E-03
(PID.TID 0000.0001) %MON exf_atemp_max                =   2.9779093132830E+02
(PID.TID 0000.0001) %MON exf_atemp_min                =   2.7431063583722E+02
(PID.TID 0000.0001) %MON exf_atemp_mean               =   2.8987793318435E+02
(PID.TID 0000.0001) %MON exf_atemp_sd                 =   4.3145505831723E+00
(PID.TID 0000.0001) %MON exf_atemp_del2               =   3.7039105728942E-03
(PID.TID 0000.0001) %MON exf_aqh_max                  =   1.4782801297136E-02
(PID.TID 0000.0001) %MON exf_aqh_min                  =   3.0858806155413E-03
(PID.TID 0000.0001) %MON exf_aqh_mean                 =   9.5862290250813E-03
(PID.TID 0000.0001) %MON exf_aqh_sd                   =   2.2644386841021E-03
(PID.TID 0000.0001) %MON exf_aqh_del2                 =   2.1306189186619E-06
(PID.TID 0000.0001) %MON exf_lwflux_max               =   1.5737087875514E+02
(PID.TID 0000.0001) %MON exf_lwflux_min               =   4.0049086623746E-01
(PID.TID 0000.0001) %MON exf_lwflux_mean              =   7.2758451062154E+01
(PID.TID 0000.0001) %MON exf_lwflux_sd                =   2.7875804503414E+01
(PID.TID 0000.0001) %MON exf_lwflux_del2              =   1.7286634422230E-02
(PID.TID 0000.0001) %MON exf_evap_max                 =   2.4942047599876E-07
(PID.TID 0000.0001) %MON exf_evap_min                 =  -4.2031993334619E-08
(PID.TID 0000.0001) %MON exf_evap_mean                =   7.9562400336453E-08
(PID.TID 0000.0001) %MON exf_evap_sd                  =   5.5936938506626E-08
(PID.TID 0000.0001) %MON exf_evap_del2                =   2.1531486666491E-11
(PID.TID 0000.0001) %MON exf_precip_max               =   1.0367656635984E-06
(PID.TID 0000.0001) %MON exf_precip_min               =   0.0000000000000E+00
(PID.TID 0000.0001) %MON exf_precip_mean              =   3.5727933545048E-08
(PID.TID 0000.0001) %MON exf_precip_sd                =   8.1074385850684E-08
(PID.TID 0000.0001) %MON exf_precip_del2              =   1.7837213639660E-11
(PID.TID 0000.0001) %MON exf_swflux_max               =   0.0000000000000E+00
(PID.TID 0000.0001) %MON exf_swflux_min               =  -1.7400761936509E+01
(PID.TID 0000.0001) %MON exf_swflux_mean              =  -5.7954555863123E-01
(PID.TID 0000.0001) %MON exf_swflux_sd                =   1.8377188278794E+00
(PID.TID 0000.0001) %MON exf_swflux_del2              =   3.9752091545238E-04
(PID.TID 0000.0001) %MON exf_swdown_max               =   1.9334179929455E+01
(PID.TID 0000.0001) %MON exf_swdown_min               =   0.0000000000000E+00
(PID.TID 0000.0001) %MON exf_swdown_mean              =   6.4393950959026E-01
(PID.TID 0000.0001) %MON exf_swdown_sd                =   2.0419098087549E+00
(PID.TID 0000.0001) %MON exf_swdown_del2              =   4.4168990605820E-04
(PID.TID 0000.0001) %MON exf_lwdown_max               =   4.0237340486244E+02
(PID.TID 0000.0001) %MON exf_lwdown_min               =   2.4889027587026E+02
(PID.TID 0000.0001) %MON exf_lwdown_mean              =   3.4205760526856E+02
(PID.TID 0000.0001) %MON exf_lwdown_sd                =   2.7521340285571E+01
(PID.TID 0000.0001) %MON exf_lwdown_del2              =   7.4681216048274E-02
(PID.TID 0000.0001) %MON exf_apressure_max            =   1.0298199924906E+05
(PID.TID 0000.0001) %MON exf_apressure_min            =   9.9654384353417E+04
(PID.TID 0000.0001) %MON exf_apressure_mean           =   1.0184770379768E+05
(PID.TID 0000.0001) %MON exf_apressure_sd             =   8.3790144226187E+02
(PID.TID 0000.0001) %MON exf_apressure_del2           =   2.2281090377698E+01
(PID.TID 0000.0001) %MON exf_runoff_max               =   4.4374822325994E-08
(PID.TID 0000.0001) %MON exf_runoff_min               =   0.0000000000000E+00
(PID.TID 0000.0001) %MON exf_runoff_mean              =   1.5884801964352E-09
(PID.TID 0000.0001) %MON exf_runoff_sd                =   5.3901974500338E-09
(PID.TID 0000.0001) %MON exf_runoff_del2              =   1.2741192460478E-12
(PID.TID 0000.0001) // =======================================================
(PID.TID 0000.0001) // End MONITOR EXF statistics
(PID.TID 0000.0001) // =======================================================
 cg2d: Sum(rhs),rhsMax =   6.62124506471797E+02  5.27677342553372E-02
(PID.TID 0000.0001)      cg2d_init_res =   1.48238731580150E+00
(PID.TID 0000.0001)      cg2d_iters(min,last) =      -1     316
(PID.TID 0000.0001)      cg2d_last_res =   6.68579584679378E-12
(PID.TID 0000.0001) // =======================================================
(PID.TID 0000.0001) // Begin MONITOR dynamic field statistics
(PID.TID 0000.0001) // =======================================================
(PID.TID 0000.0001) %MON time_tsnumber                =                     7
(PID.TID 0000.0001) %MON time_secondsf                =   1.6800000000000E+03
(PID.TID 0000.0001) %MON dynstat_eta_max              =   1.0041189401624E+00
(PID.TID 0000.0001) %MON dynstat_eta_min              =  -1.2335535575527E+00
(PID.TID 0000.0001) %MON dynstat_eta_mean             =  -2.2516835360612E-02
(PID.TID 0000.0001) %MON dynstat_eta_sd               =   2.0184674886547E-01
(PID.TID 0000.0001) %MON dynstat_eta_del2             =   2.4134282788289E-06
(PID.TID 0000.0001) %MON dynstat_uvel_max             =   8.8908336103028E-01
(PID.TID 0000.0001) %MON dynstat_uvel_min             =  -2.2410753569791E+00
(PID.TID 0000.0001) %MON dynstat_uvel_mean            =   4.7778408497742E-03
(PID.TID 0000.0001) %MON dynstat_uvel_sd              =   5.0196322709885E-02
(PID.TID 0000.0001) %MON dynstat_uvel_del2            =   4.4382385657520E-07
(PID.TID 0000.0001) %MON dynstat_vvel_max             =   1.2973137447862E+00
(PID.TID 0000.0001) %MON dynstat_vvel_min             =  -7.8884183587090E-01
(PID.TID 0000.0001) %MON dynstat_vvel_mean            =   4.1217986871623E-03
(PID.TID 0000.0001) %MON dynstat_vvel_sd              =   5.0907422426131E-02
(PID.TID 0000.0001) %MON dynstat_vvel_del2            =   4.7736286026896E-07
(PID.TID 0000.0001) %MON dynstat_wvel_max             =   3.6315270577313E-02
(PID.TID 0000.0001) %MON dynstat_wvel_min             =  -2.9061143248379E-02
(PID.TID 0000.0001) %MON dynstat_wvel_mean            =  -1.0388195733710E-05
(PID.TID 0000.0001) %MON dynstat_wvel_sd              =   5.8970205999831E-04
(PID.TID 0000.0001) %MON dynstat_wvel_del2            =   7.4936674744333E-08
(PID.TID 0000.0001) %MON dynstat_theta_max            =   2.6137506594381E+01
(PID.TID 0000.0001) %MON dynstat_theta_min            =   1.4688644940243E+00
(PID.TID 0000.0001) %MON dynstat_theta_mean           =   5.5098373286778E+00
(PID.TID 0000.0001) %MON dynstat_theta_sd             =   4.7733389407786E+00
(PID.TID 0000.0001) %MON dynstat_theta_del2           =   4.0159450928510E-06
(PID.TID 0000.0001) %MON dynstat_salt_max             =   3.9170588755336E+01
(PID.TID 0000.0001) %MON dynstat_salt_min             =   3.3090574209374E+01
(PID.TID 0000.0001) %MON dynstat_salt_mean            =   3.5173366795286E+01
(PID.TID 0000.0001) %MON dynstat_salt_sd              =   3.7891275868454E-01
(PID.TID 0000.0001) %MON dynstat_salt_del2            =   5.1057167762969E-07
(PID.TID 0000.0001) %MON dynstat_sst_max              =   2.6127461682118E+01
(PID.TID 0000.0001) %MON dynstat_sst_min              =   3.9862532897501E+00
(PID.TID 0000.0001) %MON dynstat_sst_mean             =   1.9638408624281E+01
(PID.TID 0000.0001) %MON dynstat_sst_sd               =   3.6364464247471E+00
(PID.TID 0000.0001) %MON dynstat_sst_del2             =   1.9118278089287E-05
(PID.TID 0000.0001) %MON dynstat_sss_max              =   3.7335296687452E+01
(PID.TID 0000.0001) %MON dynstat_sss_min              =   3.3090574209374E+01
(PID.TID 0000.0001) %MON dynstat_sss_mean             =   3.5868378293556E+01
(PID.TID 0000.0001) %MON dynstat_sss_sd               =   4.8736429933896E-01
(PID.TID 0000.0001) %MON dynstat_sss_del2             =   4.9544041868902E-06
(PID.TID 0000.0001) %MON forcing_qnet_max             =   1.0796251630391E+03
(PID.TID 0000.0001) %MON forcing_qnet_min             =  -1.7476389541869E+02
(PID.TID 0000.0001) %MON forcing_qnet_mean            =   3.2787871249353E+02
(PID.TID 0000.0001) %MON forcing_qnet_sd              =   2.1748344476135E+02
(PID.TID 0000.0001) %MON forcing_qnet_del2            =   1.1824376100876E-03
(PID.TID 0000.0001) %MON forcing_qsw_max              =   0.0000000000000E+00
(PID.TID 0000.0001) %MON forcing_qsw_min              =  -1.7400761936509E+01
(PID.TID 0000.0001) %MON forcing_qsw_mean             =  -5.7954555863123E-01
(PID.TID 0000.0001) %MON forcing_qsw_sd               =   1.8377188278794E+00
(PID.TID 0000.0001) %MON forcing_qsw_del2             =   5.9181925605964E-06
(PID.TID 0000.0001) %MON forcing_empmr_max            =   2.2716838746402E-04
(PID.TID 0000.0001) %MON forcing_empmr_min            =  -1.0373227174866E-03
(PID.TID 0000.0001) %MON forcing_empmr_mean           =   4.2245986594970E-05
(PID.TID 0000.0001) %MON forcing_empmr_sd             =   1.0738205165558E-04
(PID.TID 0000.0001) %MON forcing_empmr_del2           =   8.8814238945212E-10
(PID.TID 0000.0001) %MON forcing_fu_max               =   5.1910365910536E-01
(PID.TID 0000.0001) %MON forcing_fu_min               =  -3.1508631208440E-01
(PID.TID 0000.0001) %MON forcing_fu_mean              =   7.0855434190361E-02
(PID.TID 0000.0001) %MON forcing_fu_sd                =   1.4053741356751E-01
(PID.TID 0000.0001) %MON forcing_fu_del2              =   2.6908819230738E-07
(PID.TID 0000.0001) %MON forcing_fv_max               =   5.8024123562563E-01
(PID.TID 0000.0001) %MON forcing_fv_min               =  -1.7911778022161E-01
(PID.TID 0000.0001) %MON forcing_fv_mean              =   9.7902206866597E-02
(PID.TID 0000.0001) %MON forcing_fv_sd                =   1.3530640057182E-01
(PID.TID 0000.0001) %MON forcing_fv_del2              =   2.2818502350392E-07
(PID.TID 0000.0001) %MON trAdv_CFL_u_max              =   1.4159875393457E-01
(PID.TID 0000.0001) %MON trAdv_CFL_v_max              =   7.8709013409299E-02
(PID.TID 0000.0001) %MON trAdv_CFL_w_max              =   5.0832940262388E-01
(PID.TID 0000.0001) %MON advcfl_uvel_max              =   1.4164125590829E-01
(PID.TID 0000.0001) %MON advcfl_vvel_max              =   7.8709014815995E-02
(PID.TID 0000.0001) %MON advcfl_wvel_max              =   5.0438886461904E-01
(PID.TID 0000.0001) %MON advcfl_W_hf_max              =   5.0832940262388E-01
(PID.TID 0000.0001) %MON pe_b_mean                    =  -4.8958645376421E-04
(PID.TID 0000.0001) %MON ke_max                       =   2.2860449004636E+00
(PID.TID 0000.0001) %MON ke_mean                      =   2.5566833000648E-03
(PID.TID 0000.0001) %MON ke_vol                       =   4.5818637829946E+16
(PID.TID 0000.0001) %MON vort_r_min                   =  -5.0886376535083E-04
(PID.TID 0000.0001) %MON vort_r_max                   =   5.6231789218951E-04
(PID.TID 0000.0001) %MON vort_a_mean                  =   8.2147626679378E-05
(PID.TID 0000.0001) %MON vort_a_sd                    =   1.0133769055948E-05
(PID.TID 0000.0001) %MON vort_p_mean                  =   8.4848849111988E-05
(PID.TID 0000.0001) %MON vort_p_sd                    =   3.4980211755566E-05
(PID.TID 0000.0001) %MON surfExpan_theta_mean         =  -1.8292664535763E-04
(PID.TID 0000.0001) %MON surfExpan_salt_mean          =  -6.7065169519174E-04
(PID.TID 0000.0001) // =======================================================
(PID.TID 0000.0001) // End MONITOR dynamic field statistics
(PID.TID 0000.0001) // =======================================================
(PID.TID 0000.0001) // =======================================================
(PID.TID 0000.0001) // Begin OBCS MONITOR field statistics
(PID.TID 0000.0001) // =======================================================
(PID.TID 0000.0001) %MON obc_E_uVel_max               =   2.6346292306516E-01
(PID.TID 0000.0001) %MON obc_E_uVel_min               =  -2.2410753569791E+00
(PID.TID 0000.0001) %MON obc_E_uVel_mean              =   3.4788848859849E-03
(PID.TID 0000.0001) %MON obc_E_uVel_sd                =   4.4265589813559E-02
(PID.TID 0000.0001) %MON obc_E_uVel_Int               =   6.7191182567609E+07
(PID.TID 0000.0001) %MON obc_W_uVel_max               =   3.2305646818508E-01
(PID.TID 0000.0001) %MON obc_W_uVel_min               =  -6.9496280525210E-01
(PID.TID 0000.0001) %MON obc_W_uVel_mean              =  -5.5206818017658E-03
(PID.TID 0000.0001) %MON obc_W_uVel_sd                =   8.6716795627991E-02
(PID.TID 0000.0001) %MON obc_W_uVel_Int               =  -3.3618922468083E+07
(PID.TID 0000.0001) %MON obc_N_vVel_max               =   3.0284013602937E-01
(PID.TID 0000.0001) %MON obc_N_vVel_min               =  -1.0147331106821E-01
(PID.TID 0000.0001) %MON obc_N_vVel_mean              =   1.9509253949263E-02
(PID.TID 0000.0001) %MON obc_N_vVel_sd                =   4.0376383726148E-02
(PID.TID 0000.0001) %MON obc_N_vVel_Int               =   1.6047243112932E+08
(PID.TID 0000.0001) %MON obc_S_vVel_max               =   5.2779986531144E-02
(PID.TID 0000.0001) %MON obc_S_vVel_min               =  -8.9963453730775E-02
(PID.TID 0000.0001) %MON obc_S_vVel_mean              =   3.9199087994008E-03
(PID.TID 0000.0001) %MON obc_S_vVel_sd                =   1.1411723284307E-02
(PID.TID 0000.0001) %MON obc_S_vVel_Int               =   4.3624271587589E+07
(PID.TID 0000.0001) %MON obc_E_theta_max              =   2.5544222067351E+01
(PID.TID 0000.0001) %MON obc_E_theta_min              =   1.4632984148975E+00
(PID.TID 0000.0001) %MON obc_E_theta_mean             =   5.4563373026809E+00
(PID.TID 0000.0001) %MON obc_E_theta_sd               =   5.6195773800107E+00
(PID.TID 0000.0001) %MON obc_W_theta_max              =   1.5386110747048E+01
(PID.TID 0000.0001) %MON obc_W_theta_min              =   1.8895910704432E+00
(PID.TID 0000.0001) %MON obc_W_theta_mean             =   4.2051424854483E+00
(PID.TID 0000.0001) %MON obc_W_theta_sd               =   2.6437913673017E+00
(PID.TID 0000.0001) %MON obc_N_theta_max              =   1.6390244329854E+01
(PID.TID 0000.0001) %MON obc_N_theta_min              =   2.0877867407432E+00
(PID.TID 0000.0001) %MON obc_N_theta_mean             =   5.8650551264106E+00
(PID.TID 0000.0001) %MON obc_N_theta_sd               =   3.8421012045673E+00
(PID.TID 0000.0001) %MON obc_S_theta_max              =   2.3210770559692E+01
(PID.TID 0000.0001) %MON obc_S_theta_min              =   1.8976912755333E+00
(PID.TID 0000.0001) %MON obc_S_theta_mean             =   5.4651314446345E+00
(PID.TID 0000.0001) %MON obc_S_theta_sd               =   4.8645091364626E+00
(PID.TID 0000.0001) %MON obc_E_salt_max               =   3.7284737487800E+01
(PID.TID 0000.0001) %MON obc_E_salt_min               =   3.4844694679359E+01
(PID.TID 0000.0001) %MON obc_E_salt_mean              =   3.5160048626748E+01
(PID.TID 0000.0001) %MON obc_E_salt_sd                =   4.6599329474723E-01
(PID.TID 0000.0001) %MON obc_W_salt_max               =   3.5867260430084E+01
(PID.TID 0000.0001) %MON obc_W_salt_min               =   3.3295052588478E+01
(PID.TID 0000.0001) %MON obc_W_salt_mean              =   3.4957942836177E+01
(PID.TID 0000.0001) %MON obc_W_salt_sd                =   2.4692450545787E-01
(PID.TID 0000.0001) %MON obc_N_salt_max               =   3.5910864789416E+01
(PID.TID 0000.0001) %MON obc_N_salt_min               =   3.4917014931207E+01
(PID.TID 0000.0001) %MON obc_N_salt_mean              =   3.5230513880797E+01
(PID.TID 0000.0001) %MON obc_N_salt_sd                =   3.0056344931059E-01
(PID.TID 0000.0001) %MON obc_S_salt_max               =   3.7318298439933E+01
(PID.TID 0000.0001) %MON obc_S_salt_min               =   3.4884963758792E+01
(PID.TID 0000.0001) %MON obc_S_salt_mean              =   3.5182818251780E+01
(PID.TID 0000.0001) %MON obc_S_salt_sd                =   4.4106237281123E-01
(PID.TID 0000.0001) // =======================================================
(PID.TID 0000.0001) // End OBCS MONITOR field statistics
(PID.TID 0000.0001) // =======================================================
(PID.TID 0000.0001) // =======================================================
(PID.TID 0000.0001) // Begin MONITOR EXF statistics
(PID.TID 0000.0001) // =======================================================
(PID.TID 0000.0001) %MON exf_tsnumber                 =                     7
(PID.TID 0000.0001) %MON exf_time_sec                 =   1.6800000000000E+03
(PID.TID 0000.0001) %MON exf_ustress_max              =   5.1631458979469E-01
(PID.TID 0000.0001) %MON exf_ustress_min              =  -3.1691363807578E-01
(PID.TID 0000.0001) %MON exf_ustress_mean             =   7.0436510288643E-02
(PID.TID 0000.0001) %MON exf_ustress_sd               =   1.4035109988412E-01
(PID.TID 0000.0001) %MON exf_ustress_del2             =   2.9330610164836E-07
(PID.TID 0000.0001) %MON exf_vstress_max              =   5.7798165447119E-01
(PID.TID 0000.0001) %MON exf_vstress_min              =  -1.7851106389035E-01
(PID.TID 0000.0001) %MON exf_vstress_mean             =   9.7636714460077E-02
(PID.TID 0000.0001) %MON exf_vstress_sd               =   1.3506206024434E-01
(PID.TID 0000.0001) %MON exf_vstress_del2             =   2.5235479470794E-07
(PID.TID 0000.0001) %MON exf_hflux_max                =   1.0621175168441E+03
(PID.TID 0000.0001) %MON exf_hflux_min                =  -1.3216751569819E+02
(PID.TID 0000.0001) %MON exf_hflux_mean               =   3.2322374164915E+02
(PID.TID 0000.0001) %MON exf_hflux_sd                 =   2.1137295447511E+02
(PID.TID 0000.0001) %MON exf_hflux_del2               =   8.6426151410366E-02
(PID.TID 0000.0001) %MON exf_sflux_max                =   2.2672150520143E-07
(PID.TID 0000.0001) %MON exf_sflux_min                =  -1.0505644402144E-06
(PID.TID 0000.0001) %MON exf_sflux_mean               =   4.2063610497471E-08
(PID.TID 0000.0001) %MON exf_sflux_sd                 =   1.0788850849790E-07
(PID.TID 0000.0001) %MON exf_sflux_del2               =   2.3988745311690E-11
(PID.TID 0000.0001) %MON exf_uwind_max                =   1.5716469988093E+01
(PID.TID 0000.0001) %MON exf_uwind_min                =  -1.3118447195333E+01
(PID.TID 0000.0001) %MON exf_uwind_mean               =   2.9521552017165E+00
(PID.TID 0000.0001) %MON exf_uwind_sd                 =   6.7612865112918E+00
(PID.TID 0000.0001) %MON exf_uwind_del2               =   1.6373021114995E-03
(PID.TID 0000.0001) %MON exf_vwind_max                =   1.4905881783701E+01
(PID.TID 0000.0001) %MON exf_vwind_min                =  -1.0509723045963E+01
(PID.TID 0000.0001) %MON exf_vwind_mean               =   4.6257219738113E+00
(PID.TID 0000.0001) %MON exf_vwind_sd                 =   5.9620760203378E+00
(PID.TID 0000.0001) %MON exf_vwind_del2               =   1.6863583731487E-03
(PID.TID 0000.0001) %MON exf_wspeed_max               =   1.8363310180540E+01
(PID.TID 0000.0001) %MON exf_wspeed_min               =   4.6852452221262E-02
(PID.TID 0000.0001) %MON exf_wspeed_mean              =   9.9313175270623E+00
(PID.TID 0000.0001) %MON exf_wspeed_sd                =   3.5697061574802E+00
(PID.TID 0000.0001) %MON exf_wspeed_del2              =   2.3503770990814E-03
(PID.TID 0000.0001) %MON exf_atemp_max                =   2.9779047729971E+02
(PID.TID 0000.0001) %MON exf_atemp_min                =   2.7432176299037E+02
(PID.TID 0000.0001) %MON exf_atemp_mean               =   2.8987800669811E+02
(PID.TID 0000.0001) %MON exf_atemp_sd                 =   4.3111878712873E+00
(PID.TID 0000.0001) %MON exf_atemp_del2               =   3.7038895319432E-03
(PID.TID 0000.0001) %MON exf_aqh_max                  =   1.4804405958974E-02
(PID.TID 0000.0001) %MON exf_aqh_min                  =   3.0934277038929E-03
(PID.TID 0000.0001) %MON exf_aqh_mean                 =   9.5858458430423E-03
(PID.TID 0000.0001) %MON exf_aqh_sd                   =   2.2621522406476E-03
(PID.TID 0000.0001) %MON exf_aqh_del2                 =   2.1304868255210E-06
(PID.TID 0000.0001) %MON exf_lwflux_max               =   1.5715933248375E+02
(PID.TID 0000.0001) %MON exf_lwflux_min               =  -2.6155741892818E-01
(PID.TID 0000.0001) %MON exf_lwflux_mean              =   7.2751443973138E+01
(PID.TID 0000.0001) %MON exf_lwflux_sd                =   2.7898579143004E+01
(PID.TID 0000.0001) %MON exf_lwflux_del2              =   1.7285690723529E-02
(PID.TID 0000.0001) %MON exf_evap_max                 =   2.4909037127170E-07
(PID.TID 0000.0001) %MON exf_evap_min                 =  -4.1889039525806E-08
(PID.TID 0000.0001) %MON exf_evap_mean                =   7.9474882464495E-08
(PID.TID 0000.0001) %MON exf_evap_sd                  =   5.5840859053550E-08
(PID.TID 0000.0001) %MON exf_evap_del2                =   2.1501785534805E-11
(PID.TID 0000.0001) %MON exf_precip_max               =   1.0498759731617E-06
(PID.TID 0000.0001) %MON exf_precip_min               =   0.0000000000000E+00
(PID.TID 0000.0001) %MON exf_precip_mean              =   3.5822791770589E-08
(PID.TID 0000.0001) %MON exf_precip_sd                =   8.1672022873768E-08
(PID.TID 0000.0001) %MON exf_precip_del2              =   1.7949297411297E-11
(PID.TID 0000.0001) %MON exf_swflux_max               =   0.0000000000000E+00
(PID.TID 0000.0001) %MON exf_swflux_min               =  -1.6346170303993E+01
(PID.TID 0000.0001) %MON exf_swflux_mean              =  -5.4442158538086E-01
(PID.TID 0000.0001) %MON exf_swflux_sd                =   1.7263419292201E+00
(PID.TID 0000.0001) %MON exf_swflux_del2              =   3.7342873875830E-04
(PID.TID 0000.0001) %MON exf_swdown_max               =   1.8162411448882E+01
(PID.TID 0000.0001) %MON exf_swdown_min               =   0.0000000000000E+00
(PID.TID 0000.0001) %MON exf_swdown_mean              =   6.0491287264540E-01
(PID.TID 0000.0001) %MON exf_swdown_sd                =   1.9181576991334E+00
(PID.TID 0000.0001) %MON exf_swdown_del2              =   4.1492082084255E-04
(PID.TID 0000.0001) %MON exf_lwdown_max               =   4.0247539859679E+02
(PID.TID 0000.0001) %MON exf_lwdown_min               =   2.4892532131926E+02
(PID.TID 0000.0001) %MON exf_lwdown_mean              =   3.4205858334963E+02
(PID.TID 0000.0001) %MON exf_lwdown_sd                =   2.7527986873749E+01
(PID.TID 0000.0001) %MON exf_lwdown_del2              =   7.4681940130238E-02
(PID.TID 0000.0001) %MON exf_apressure_max            =   1.0297947401086E+05
(PID.TID 0000.0001) %MON exf_apressure_min            =   9.9653222821228E+04
(PID.TID 0000.0001) %MON exf_apressure_mean           =   1.0184607009005E+05
(PID.TID 0000.0001) %MON exf_apressure_sd             =   8.3733681965388E+02
(PID.TID 0000.0001) %MON exf_apressure_del2           =   2.2280742359614E+01
(PID.TID 0000.0001) %MON exf_runoff_max               =   4.4374822325994E-08
(PID.TID 0000.0001) %MON exf_runoff_min               =   0.0000000000000E+00
(PID.TID 0000.0001) %MON exf_runoff_mean              =   1.5884801964352E-09
(PID.TID 0000.0001) %MON exf_runoff_sd                =   5.3901974500338E-09
(PID.TID 0000.0001) %MON exf_runoff_del2              =   1.2741192460478E-12
(PID.TID 0000.0001) // =======================================================
(PID.TID 0000.0001) // End MONITOR EXF statistics
(PID.TID 0000.0001) // =======================================================
 cg2d: Sum(rhs),rhsMax =   8.11435732892374E+02  4.59624833307003E-02
(PID.TID 0000.0001)      cg2d_init_res =   1.50678312924617E+00
(PID.TID 0000.0001)      cg2d_iters(min,last) =      -1     316
(PID.TID 0000.0001)      cg2d_last_res =   6.57351916503516E-12
(PID.TID 0000.0001) // =======================================================
(PID.TID 0000.0001) // Begin MONITOR dynamic field statistics
(PID.TID 0000.0001) // =======================================================
(PID.TID 0000.0001) %MON time_tsnumber                =                     8
(PID.TID 0000.0001) %MON time_secondsf                =   1.9200000000000E+03
(PID.TID 0000.0001) %MON dynstat_eta_max              =   9.8081581659864E-01
(PID.TID 0000.0001) %MON dynstat_eta_min              =  -1.2507338508943E+00
(PID.TID 0000.0001) %MON dynstat_eta_mean             =  -2.7594454856556E-02
(PID.TID 0000.0001) %MON dynstat_eta_sd               =   2.1507137907624E-01
(PID.TID 0000.0001) %MON dynstat_eta_del2             =   2.4655421939980E-06
(PID.TID 0000.0001) %MON dynstat_uvel_max             =   8.9005716749604E-01
(PID.TID 0000.0001) %MON dynstat_uvel_min             =  -2.3036284870175E+00
(PID.TID 0000.0001) %MON dynstat_uvel_mean            =   5.1179293441807E-03
(PID.TID 0000.0001) %MON dynstat_uvel_sd              =   5.0287528551494E-02
(PID.TID 0000.0001) %MON dynstat_uvel_del2            =   4.5348419951606E-07
(PID.TID 0000.0001) %MON dynstat_vvel_max             =   1.2961950809703E+00
(PID.TID 0000.0001) %MON dynstat_vvel_min             =  -7.7622285407919E-01
(PID.TID 0000.0001) %MON dynstat_vvel_mean            =   4.2660084877510E-03
(PID.TID 0000.0001) %MON dynstat_vvel_sd              =   5.0923826203127E-02
(PID.TID 0000.0001) %MON dynstat_vvel_del2            =   4.8601283663923E-07
(PID.TID 0000.0001) %MON dynstat_wvel_max             =   3.5910592982438E-02
(PID.TID 0000.0001) %MON dynstat_wvel_min             =  -2.8198928341829E-02
(PID.TID 0000.0001) %MON dynstat_wvel_mean            =  -1.1561718777160E-05
(PID.TID 0000.0001) %MON dynstat_wvel_sd              =   5.9360929819663E-04
(PID.TID 0000.0001) %MON dynstat_wvel_del2            =   7.4915190669664E-08
(PID.TID 0000.0001) %MON dynstat_theta_max            =   2.6136712720341E+01
(PID.TID 0000.0001) %MON dynstat_theta_min            =   1.4688646549740E+00
(PID.TID 0000.0001) %MON dynstat_theta_mean           =   5.5098383487672E+00
(PID.TID 0000.0001) %MON dynstat_theta_sd             =   4.7733213074845E+00
(PID.TID 0000.0001) %MON dynstat_theta_del2           =   4.0192595187947E-06
(PID.TID 0000.0001) %MON dynstat_salt_max             =   3.9167288984969E+01
(PID.TID 0000.0001) %MON dynstat_salt_min             =   3.3090718382088E+01
(PID.TID 0000.0001) %MON dynstat_salt_mean            =   3.5173366431766E+01
(PID.TID 0000.0001) %MON dynstat_salt_sd              =   3.7891352316606E-01
(PID.TID 0000.0001) %MON dynstat_salt_del2            =   5.1439408201668E-07
(PID.TID 0000.0001) %MON dynstat_sst_max              =   2.6125851045389E+01
(PID.TID 0000.0001) %MON dynstat_sst_min              =   3.9708200814723E+00
(PID.TID 0000.0001) %MON dynstat_sst_mean             =   1.9637404169774E+01
(PID.TID 0000.0001) %MON dynstat_sst_sd               =   3.6362875203901E+00
(PID.TID 0000.0001) %MON dynstat_sst_del2             =   1.9137250482201E-05
(PID.TID 0000.0001) %MON dynstat_sss_max              =   3.7335335806087E+01
(PID.TID 0000.0001) %MON dynstat_sss_min              =   3.3090718382088E+01
(PID.TID 0000.0001) %MON dynstat_sss_mean             =   3.5868419910026E+01
(PID.TID 0000.0001) %MON dynstat_sss_sd               =   4.8738165006562E-01
(PID.TID 0000.0001) %MON dynstat_sss_del2             =   4.9459637739258E-06
(PID.TID 0000.0001) %MON forcing_qnet_max             =   1.0781256409213E+03
(PID.TID 0000.0001) %MON forcing_qnet_min             =  -1.7661638168319E+02
(PID.TID 0000.0001) %MON forcing_qnet_mean            =   3.2759254974522E+02
(PID.TID 0000.0001) %MON forcing_qnet_sd              =   2.1717171675544E+02
(PID.TID 0000.0001) %MON forcing_qnet_del2            =   1.1804190989797E-03
(PID.TID 0000.0001) %MON forcing_qsw_max              =   0.0000000000000E+00
(PID.TID 0000.0001) %MON forcing_qsw_min              =  -1.6346170303993E+01
(PID.TID 0000.0001) %MON forcing_qsw_mean             =  -5.4442158538086E-01
(PID.TID 0000.0001) %MON forcing_qsw_sd               =   1.7263419292201E+00
(PID.TID 0000.0001) %MON forcing_qsw_del2             =   5.5595142235906E-06
(PID.TID 0000.0001) %MON forcing_empmr_max            =   2.2672150520143E-04
(PID.TID 0000.0001) %MON forcing_empmr_min            =  -1.0505644402144E-03
(PID.TID 0000.0001) %MON forcing_empmr_mean           =   4.2063610497471E-05
(PID.TID 0000.0001) %MON forcing_empmr_sd             =   1.0788850849790E-04
(PID.TID 0000.0001) %MON forcing_empmr_del2           =   9.0033175837137E-10
(PID.TID 0000.0001) %MON forcing_fu_max               =   5.1628663117299E-01
(PID.TID 0000.0001) %MON forcing_fu_min               =  -3.1690762105488E-01
(PID.TID 0000.0001) %MON forcing_fu_mean              =   7.0543379122824E-02
(PID.TID 0000.0001) %MON forcing_fu_sd                =   1.4036199687147E-01
(PID.TID 0000.0001) %MON forcing_fu_del2              =   2.7092789308033E-07
(PID.TID 0000.0001) %MON forcing_fv_max               =   5.7795063425264E-01
(PID.TID 0000.0001) %MON forcing_fv_min               =  -1.7850694498535E-01
(PID.TID 0000.0001) %MON forcing_fv_mean              =   9.7663410551121E-02
(PID.TID 0000.0001) %MON forcing_fv_sd                =   1.3507117187496E-01
(PID.TID 0000.0001) %MON forcing_fv_del2              =   2.2828958735009E-07
(PID.TID 0000.0001) %MON trAdv_CFL_u_max              =   1.4555107318192E-01
(PID.TID 0000.0001) %MON trAdv_CFL_v_max              =   7.8641143223205E-02
(PID.TID 0000.0001) %MON trAdv_CFL_w_max              =   5.2212690804746E-01
(PID.TID 0000.0001) %MON advcfl_uvel_max              =   1.4559476147518E-01
(PID.TID 0000.0001) %MON advcfl_vvel_max              =   7.8641144628688E-02
(PID.TID 0000.0001) %MON advcfl_wvel_max              =   5.1807941263624E-01
(PID.TID 0000.0001) %MON advcfl_W_hf_max              =   5.2212690804746E-01
(PID.TID 0000.0001) %MON pe_b_mean                    =  -6.0551938239907E-04
(PID.TID 0000.0001) %MON ke_max                       =   2.4037064573160E+00
(PID.TID 0000.0001) %MON ke_mean                      =   2.5643372929674E-03
(PID.TID 0000.0001) %MON ke_vol                       =   4.5818637829946E+16
(PID.TID 0000.0001) %MON vort_r_min                   =  -5.1198368828523E-04
(PID.TID 0000.0001) %MON vort_r_max                   =   5.9802741584877E-04
(PID.TID 0000.0001) %MON vort_a_mean                  =   8.2147625888754E-05
(PID.TID 0000.0001) %MON vort_a_sd                    =   1.0137291078317E-05
(PID.TID 0000.0001) %MON vort_p_mean                  =   8.4848848295367E-05
(PID.TID 0000.0001) %MON vort_p_sd                    =   3.4981765346641E-05
(PID.TID 0000.0001) %MON surfExpan_theta_mean         =  -2.2729157949367E-04
(PID.TID 0000.0001) %MON surfExpan_salt_mean          =  -7.4061812132899E-04
(PID.TID 0000.0001) // =======================================================
(PID.TID 0000.0001) // End MONITOR dynamic field statistics
(PID.TID 0000.0001) // =======================================================
(PID.TID 0000.0001) // =======================================================
(PID.TID 0000.0001) // Begin OBCS MONITOR field statistics
(PID.TID 0000.0001) // =======================================================
(PID.TID 0000.0001) %MON obc_E_uVel_max               =   2.6356238598423E-01
(PID.TID 0000.0001) %MON obc_E_uVel_min               =  -2.3036284870175E+00
(PID.TID 0000.0001) %MON obc_E_uVel_mean              =   3.9749980996970E-03
(PID.TID 0000.0001) %MON obc_E_uVel_sd                =   4.4361965086089E-02
(PID.TID 0000.0001) %MON obc_E_uVel_Int               =   7.6773113160089E+07
(PID.TID 0000.0001) %MON obc_W_uVel_max               =   3.2328821090225E-01
(PID.TID 0000.0001) %MON obc_W_uVel_min               =  -6.9483277940571E-01
(PID.TID 0000.0001) %MON obc_W_uVel_mean              =  -5.3210457114999E-03
(PID.TID 0000.0001) %MON obc_W_uVel_sd                =   8.6600757942162E-02
(PID.TID 0000.0001) %MON obc_W_uVel_Int               =  -3.2403212075512E+07
(PID.TID 0000.0001) %MON obc_N_vVel_max               =   3.0311619614182E-01
(PID.TID 0000.0001) %MON obc_N_vVel_min               =  -1.0114135409257E-01
(PID.TID 0000.0001) %MON obc_N_vVel_mean              =   1.9668925137915E-02
(PID.TID 0000.0001) %MON obc_N_vVel_sd                =   4.0467916084141E-02
(PID.TID 0000.0001) %MON obc_N_vVel_Int               =   1.6178579882093E+08
(PID.TID 0000.0001) %MON obc_S_vVel_max               =   5.1880402895053E-02
(PID.TID 0000.0001) %MON obc_S_vVel_min               =  -9.0430557895943E-02
(PID.TID 0000.0001) %MON obc_S_vVel_mean              =   2.8628064393787E-03
(PID.TID 0000.0001) %MON obc_S_vVel_sd                =   1.1385652269168E-02
(PID.TID 0000.0001) %MON obc_S_vVel_Int               =   3.1859885524184E+07
(PID.TID 0000.0001) %MON obc_E_theta_max              =   2.5544119318571E+01
(PID.TID 0000.0001) %MON obc_E_theta_min              =   1.4632988111847E+00
(PID.TID 0000.0001) %MON obc_E_theta_mean             =   5.4563369646251E+00
(PID.TID 0000.0001) %MON obc_E_theta_sd               =   5.6195737664663E+00
(PID.TID 0000.0001) %MON obc_W_theta_max              =   1.5385990833437E+01
(PID.TID 0000.0001) %MON obc_W_theta_min              =   1.8895911195086E+00
(PID.TID 0000.0001) %MON obc_W_theta_mean             =   4.2051302649294E+00
(PID.TID 0000.0001) %MON obc_W_theta_sd               =   2.6437711238035E+00
(PID.TID 0000.0001) %MON obc_N_theta_max              =   1.6390156227667E+01
(PID.TID 0000.0001) %MON obc_N_theta_min              =   2.0877834655693E+00
(PID.TID 0000.0001) %MON obc_N_theta_mean             =   5.8650513228187E+00
(PID.TID 0000.0001) %MON obc_N_theta_sd               =   3.8420953130215E+00
(PID.TID 0000.0001) %MON obc_S_theta_max              =   2.3210686622600E+01
(PID.TID 0000.0001) %MON obc_S_theta_min              =   1.8976912647955E+00
(PID.TID 0000.0001) %MON obc_S_theta_mean             =   5.4651298291942E+00
(PID.TID 0000.0001) %MON obc_S_theta_sd               =   4.8645047235233E+00
(PID.TID 0000.0001) %MON obc_E_salt_max               =   3.7284725418282E+01
(PID.TID 0000.0001) %MON obc_E_salt_min               =   3.4844694731580E+01
(PID.TID 0000.0001) %MON obc_E_salt_mean              =   3.5160048696606E+01
(PID.TID 0000.0001) %MON obc_E_salt_sd                =   4.6599332433987E-01
(PID.TID 0000.0001) %MON obc_W_salt_max               =   3.5867260933140E+01
(PID.TID 0000.0001) %MON obc_W_salt_min               =   3.3295058091112E+01
(PID.TID 0000.0001) %MON obc_W_salt_mean              =   3.4957942310874E+01
(PID.TID 0000.0001) %MON obc_W_salt_sd                =   2.4692377103325E-01
(PID.TID 0000.0001) %MON obc_N_salt_max               =   3.5910864381053E+01
(PID.TID 0000.0001) %MON obc_N_salt_min               =   3.4917014917282E+01
(PID.TID 0000.0001) %MON obc_N_salt_mean              =   3.5230513754583E+01
(PID.TID 0000.0001) %MON obc_N_salt_sd                =   3.0056352813672E-01
(PID.TID 0000.0001) %MON obc_S_salt_max               =   3.7318291555549E+01
(PID.TID 0000.0001) %MON obc_S_salt_min               =   3.4884963754962E+01
(PID.TID 0000.0001) %MON obc_S_salt_mean              =   3.5182817933816E+01
(PID.TID 0000.0001) %MON obc_S_salt_sd                =   4.4106133588540E-01
(PID.TID 0000.0001) // =======================================================
(PID.TID 0000.0001) // End OBCS MONITOR field statistics
(PID.TID 0000.0001) // =======================================================
(PID.TID 0000.0001)  EXF_INTERP_READ: opening file: jra55/tide_2003
(PID.TID 0000.0001) // =======================================================
(PID.TID 0000.0001) // Begin MONITOR EXF statistics
(PID.TID 0000.0001) // =======================================================
(PID.TID 0000.0001) %MON exf_tsnumber                 =                     8
(PID.TID 0000.0001) %MON exf_time_sec                 =   1.9200000000000E+03
(PID.TID 0000.0001) %MON exf_ustress_max              =   5.1369619734442E-01
(PID.TID 0000.0001) %MON exf_ustress_min              =  -3.1892813130085E-01
(PID.TID 0000.0001) %MON exf_ustress_mean             =   7.0132804097686E-02
(PID.TID 0000.0001) %MON exf_ustress_sd               =   1.4020327583307E-01
(PID.TID 0000.0001) %MON exf_ustress_del2             =   2.9608522809196E-07
(PID.TID 0000.0001) %MON exf_vstress_max              =   5.7578522651002E-01
(PID.TID 0000.0001) %MON exf_vstress_min              =  -1.7794005078089E-01
(PID.TID 0000.0001) %MON exf_vstress_mean             =   9.7407439284836E-02
(PID.TID 0000.0001) %MON exf_vstress_sd               =   1.3485131835261E-01
(PID.TID 0000.0001) %MON exf_vstress_del2             =   2.5221521975546E-07
(PID.TID 0000.0001) %MON exf_hflux_max                =   1.0607269735418E+03
(PID.TID 0000.0001) %MON exf_hflux_min                =  -1.3138133731878E+02
(PID.TID 0000.0001) %MON exf_hflux_mean               =   3.2297103336777E+02
(PID.TID 0000.0001) %MON exf_hflux_sd                 =   2.1107032441285E+02
(PID.TID 0000.0001) %MON exf_hflux_del2               =   8.6330765011048E-02
(PID.TID 0000.0001) %MON exf_sflux_max                =   2.2628937575944E-07
(PID.TID 0000.0001) %MON exf_sflux_min                =  -1.0638346366578E-06
(PID.TID 0000.0001) %MON exf_sflux_mean               =   4.1886794603093E-08
(PID.TID 0000.0001) %MON exf_sflux_sd                 =   1.0842323287462E-07
(PID.TID 0000.0001) %MON exf_sflux_del2               =   2.4062720085036E-11
(PID.TID 0000.0001) %MON exf_uwind_max                =   1.5662929476797E+01
(PID.TID 0000.0001) %MON exf_uwind_min                =  -1.3155657462633E+01
(PID.TID 0000.0001) %MON exf_uwind_mean               =   2.9432806954679E+00
(PID.TID 0000.0001) %MON exf_uwind_sd                 =   6.7649045537610E+00
(PID.TID 0000.0001) %MON exf_uwind_del2               =   1.6372122904493E-03
(PID.TID 0000.0001) %MON exf_vwind_max                =   1.4880805400134E+01
(PID.TID 0000.0001) %MON exf_vwind_min                =  -1.0490803220199E+01
(PID.TID 0000.0001) %MON exf_vwind_mean               =   4.6192701342920E+00
(PID.TID 0000.0001) %MON exf_vwind_sd                 =   5.9565157134956E+00
(PID.TID 0000.0001) %MON exf_vwind_del2               =   1.6847327361919E-03
(PID.TID 0000.0001) %MON exf_wspeed_max               =   1.8347489014915E+01
(PID.TID 0000.0001) %MON exf_wspeed_min               =   1.0914509149248E-02
(PID.TID 0000.0001) %MON exf_wspeed_mean              =   9.9259561613348E+00
(PID.TID 0000.0001) %MON exf_wspeed_sd                =   3.5665060179049E+00
(PID.TID 0000.0001) %MON exf_wspeed_del2              =   2.3491492165898E-03
(PID.TID 0000.0001) %MON exf_atemp_max                =   2.9779002327112E+02
(PID.TID 0000.0001) %MON exf_atemp_min                =   2.7433289014353E+02
(PID.TID 0000.0001) %MON exf_atemp_mean               =   2.8987808021187E+02
(PID.TID 0000.0001) %MON exf_atemp_sd                 =   4.3078589407007E+00
(PID.TID 0000.0001) %MON exf_atemp_del2               =   3.7038706720835E-03
(PID.TID 0000.0001) %MON exf_aqh_max                  =   1.4826010620812E-02
(PID.TID 0000.0001) %MON exf_aqh_min                  =   3.1009747922444E-03
(PID.TID 0000.0001) %MON exf_aqh_mean                 =   9.5854626610032E-03
(PID.TID 0000.0001) %MON exf_aqh_sd                   =   2.2599133734989E-03
(PID.TID 0000.0001) %MON exf_aqh_del2                 =   2.1303573821982E-06
(PID.TID 0000.0001) %MON exf_lwflux_max               =   1.5694812173134E+02
(PID.TID 0000.0001) %MON exf_lwflux_min               =  -9.2380275938332E-01
(PID.TID 0000.0001) %MON exf_lwflux_mean              =   7.2744913584801E+01
(PID.TID 0000.0001) %MON exf_lwflux_sd                =   2.7924455478168E+01
(PID.TID 0000.0001) %MON exf_lwflux_del2              =   1.7285111763738E-02
(PID.TID 0000.0001) %MON exf_evap_max                 =   2.4877606231977E-07
(PID.TID 0000.0001) %MON exf_evap_min                 =  -4.1747166139282E-08
(PID.TID 0000.0001) %MON exf_evap_mean                =   7.9392924795658E-08
(PID.TID 0000.0001) %MON exf_evap_sd                  =   5.5749765507508E-08
(PID.TID 0000.0001) %MON exf_evap_del2                =   2.1473915631119E-11
(PID.TID 0000.0001) %MON exf_precip_max               =   1.0629862827250E-06
(PID.TID 0000.0001) %MON exf_precip_min               =   0.0000000000000E+00
(PID.TID 0000.0001) %MON exf_precip_mean              =   3.5917649996130E-08
(PID.TID 0000.0001) %MON exf_precip_sd                =   8.2300616080669E-08
(PID.TID 0000.0001) %MON exf_precip_del2              =   1.8067342833174E-11
(PID.TID 0000.0001) %MON exf_swflux_max               =   0.0000000000000E+00
(PID.TID 0000.0001) %MON exf_swflux_min               =  -1.5291578671478E+01
(PID.TID 0000.0001) %MON exf_swflux_mean              =  -5.0929761213048E-01
(PID.TID 0000.0001) %MON exf_swflux_sd                =   1.6149650305607E+00
(PID.TID 0000.0001) %MON exf_swflux_del2              =   3.4933656206421E-04
(PID.TID 0000.0001) %MON exf_swdown_max               =   1.6990642968309E+01
(PID.TID 0000.0001) %MON exf_swdown_min               =   0.0000000000000E+00
(PID.TID 0000.0001) %MON exf_swdown_mean              =   5.6588623570053E-01
(PID.TID 0000.0001) %MON exf_swdown_sd                =   1.7944055895119E+00
(PID.TID 0000.0001) %MON exf_swdown_del2              =   3.8815173562691E-04
(PID.TID 0000.0001) %MON exf_lwdown_max               =   4.0257739233115E+02
(PID.TID 0000.0001) %MON exf_lwdown_min               =   2.4886539005357E+02
(PID.TID 0000.0001) %MON exf_lwdown_mean              =   3.4205956143069E+02
(PID.TID 0000.0001) %MON exf_lwdown_sd                =   2.7537820739356E+01
(PID.TID 0000.0001) %MON exf_lwdown_del2              =   7.4682726765670E-02
(PID.TID 0000.0001) %MON exf_apressure_max            =   1.0297694877266E+05
(PID.TID 0000.0001) %MON exf_apressure_min            =   9.9652061289039E+04
(PID.TID 0000.0001) %MON exf_apressure_mean           =   1.0184443638243E+05
(PID.TID 0000.0001) %MON exf_apressure_sd             =   8.3677728123617E+02
(PID.TID 0000.0001) %MON exf_apressure_del2           =   2.2280394351862E+01
(PID.TID 0000.0001) %MON exf_runoff_max               =   4.4374822325994E-08
(PID.TID 0000.0001) %MON exf_runoff_min               =   0.0000000000000E+00
(PID.TID 0000.0001) %MON exf_runoff_mean              =   1.5884801964352E-09
(PID.TID 0000.0001) %MON exf_runoff_sd                =   5.3901974500338E-09
(PID.TID 0000.0001) %MON exf_runoff_del2              =   1.2741192460478E-12
(PID.TID 0000.0001) // =======================================================
(PID.TID 0000.0001) // End MONITOR EXF statistics
(PID.TID 0000.0001) // =======================================================
 cg2d: Sum(rhs),rhsMax =   9.73956240969725E+02  4.21778905349234E-02
(PID.TID 0000.0001)      cg2d_init_res =   1.60749431788443E+00
(PID.TID 0000.0001)      cg2d_iters(min,last) =      -1     315
(PID.TID 0000.0001)      cg2d_last_res =   6.90861043648306E-12
(PID.TID 0000.0001) // =======================================================
(PID.TID 0000.0001) // Begin MONITOR dynamic field statistics
(PID.TID 0000.0001) // =======================================================
(PID.TID 0000.0001) %MON time_tsnumber                =                     9
(PID.TID 0000.0001) %MON time_secondsf                =   2.1600000000000E+03
(PID.TID 0000.0001) %MON dynstat_eta_max              =   9.7103194859137E-01
(PID.TID 0000.0001) %MON dynstat_eta_min              =  -1.3627377911682E+00
(PID.TID 0000.0001) %MON dynstat_eta_mean             =  -3.3121281740823E-02
(PID.TID 0000.0001) %MON dynstat_eta_sd               =   2.2734877904664E-01
(PID.TID 0000.0001) %MON dynstat_eta_del2             =   2.4596744225186E-06
(PID.TID 0000.0001) %MON dynstat_uvel_max             =   8.9058880929444E-01
(PID.TID 0000.0001) %MON dynstat_uvel_min             =  -2.3657233006407E+00
(PID.TID 0000.0001) %MON dynstat_uvel_mean            =   5.4352957109991E-03
(PID.TID 0000.0001) %MON dynstat_uvel_sd              =   5.0382984045184E-02
(PID.TID 0000.0001) %MON dynstat_uvel_del2            =   4.6350060150924E-07
(PID.TID 0000.0001) %MON dynstat_vvel_max             =   1.2933609636839E+00
(PID.TID 0000.0001) %MON dynstat_vvel_min             =  -7.6053284230065E-01
(PID.TID 0000.0001) %MON dynstat_vvel_mean            =   4.3812778507267E-03
(PID.TID 0000.0001) %MON dynstat_vvel_sd              =   5.0929878424495E-02
(PID.TID 0000.0001) %MON dynstat_vvel_del2            =   4.9518150696306E-07
(PID.TID 0000.0001) %MON dynstat_wvel_max             =   3.5482580593701E-02
(PID.TID 0000.0001) %MON dynstat_wvel_min             =  -2.9018532481820E-02
(PID.TID 0000.0001) %MON dynstat_wvel_mean            =  -1.2721113095525E-05
(PID.TID 0000.0001) %MON dynstat_wvel_sd              =   5.9806854731325E-04
(PID.TID 0000.0001) %MON dynstat_wvel_del2            =   7.5442979185016E-08
(PID.TID 0000.0001) %MON dynstat_theta_max            =   2.6135607407746E+01
(PID.TID 0000.0001) %MON dynstat_theta_min            =   1.4688648244034E+00
(PID.TID 0000.0001) %MON dynstat_theta_mean           =   5.5098414152381E+00
(PID.TID 0000.0001) %MON dynstat_theta_sd             =   4.7733067139015E+00
(PID.TID 0000.0001) %MON dynstat_theta_del2           =   4.0224751942247E-06
(PID.TID 0000.0001) %MON dynstat_salt_max             =   3.9163771796940E+01
(PID.TID 0000.0001) %MON dynstat_salt_min             =   3.3090862086028E+01
(PID.TID 0000.0001) %MON dynstat_salt_mean            =   3.5173366248257E+01
(PID.TID 0000.0001) %MON dynstat_salt_sd              =   3.7891449560449E-01
(PID.TID 0000.0001) %MON dynstat_salt_del2            =   5.1807242733285E-07
(PID.TID 0000.0001) %MON dynstat_sst_max              =   2.6124237710396E+01
(PID.TID 0000.0001) %MON dynstat_sst_min              =   3.9552516913347E+00
(PID.TID 0000.0001) %MON dynstat_sst_mean             =   1.9636469191868E+01
(PID.TID 0000.0001) %MON dynstat_sst_sd               =   3.6361430485505E+00
(PID.TID 0000.0001) %MON dynstat_sst_del2             =   1.9159990930538E-05
(PID.TID 0000.0001) %MON dynstat_sss_max              =   3.7335380180503E+01
(PID.TID 0000.0001) %MON dynstat_sss_min              =   3.3090862086028E+01
(PID.TID 0000.0001) %MON dynstat_sss_mean             =   3.5868458792860E+01
(PID.TID 0000.0001) %MON dynstat_sss_sd               =   4.8739782459578E-01
(PID.TID 0000.0001) %MON dynstat_sss_del2             =   4.9380879504372E-06
(PID.TID 0000.0001) %MON forcing_qnet_max             =   1.0766897236297E+03
(PID.TID 0000.0001) %MON forcing_qnet_min             =  -1.7847212116029E+02
(PID.TID 0000.0001) %MON forcing_qnet_mean            =   3.2732580551569E+02
(PID.TID 0000.0001) %MON forcing_qnet_sd              =   2.1687863945147E+02
(PID.TID 0000.0001) %MON forcing_qnet_del2            =   1.1821702814755E-03
(PID.TID 0000.0001) %MON forcing_qsw_max              =   0.0000000000000E+00
(PID.TID 0000.0001) %MON forcing_qsw_min              =  -1.5291578671478E+01
(PID.TID 0000.0001) %MON forcing_qsw_mean             =  -5.0929761213048E-01
(PID.TID 0000.0001) %MON forcing_qsw_sd               =   1.6149650305607E+00
(PID.TID 0000.0001) %MON forcing_qsw_del2             =   5.2008358865847E-06
(PID.TID 0000.0001) %MON forcing_empmr_max            =   2.2628937575944E-04
(PID.TID 0000.0001) %MON forcing_empmr_min            =  -1.0638346366578E-03
(PID.TID 0000.0001) %MON forcing_empmr_mean           =   4.1886794603093E-05
(PID.TID 0000.0001) %MON forcing_empmr_sd             =   1.0842323287462E-04
(PID.TID 0000.0001) %MON forcing_empmr_del2           =   9.1324840102819E-10
(PID.TID 0000.0001) %MON forcing_fu_max               =   5.1367135786921E-01
(PID.TID 0000.0001) %MON forcing_fu_min               =  -3.1890636601952E-01
(PID.TID 0000.0001) %MON forcing_fu_mean              =   7.0239147222744E-02
(PID.TID 0000.0001) %MON forcing_fu_sd                =   1.4021390940831E-01
(PID.TID 0000.0001) %MON forcing_fu_del2              =   2.7344999997729E-07
(PID.TID 0000.0001) %MON forcing_fv_max               =   5.7574700938727E-01
(PID.TID 0000.0001) %MON forcing_fv_min               =  -1.7793943302562E-01
(PID.TID 0000.0001) %MON forcing_fv_mean              =   9.7433861327555E-02
(PID.TID 0000.0001) %MON forcing_fv_sd                =   1.3486042705847E-01
(PID.TID 0000.0001) %MON forcing_fv_del2              =   2.2825197647879E-07
(PID.TID 0000.0001) %MON trAdv_CFL_u_max              =   1.4947443444127E-01
(PID.TID 0000.0001) %MON trAdv_CFL_v_max              =   7.8469195167927E-02
(PID.TID 0000.0001) %MON trAdv_CFL_w_max              =   5.1721379066670E-01
(PID.TID 0000.0001) %MON advcfl_uvel_max              =   1.4951930036210E-01
(PID.TID 0000.0001) %MON advcfl_vvel_max              =   7.8469196570337E-02
(PID.TID 0000.0001) %MON advcfl_wvel_max              =   5.1320438143673E-01
(PID.TID 0000.0001) %MON advcfl_W_hf_max              =   5.1721379066670E-01
(PID.TID 0000.0001) %MON pe_b_mean                    =  -7.3254330451979E-04
(PID.TID 0000.0001) %MON ke_max                       =   2.5248108352589E+00
(PID.TID 0000.0001) %MON ke_mean                      =   2.5715746967075E-03
(PID.TID 0000.0001) %MON ke_vol                       =   4.5818637829946E+16
(PID.TID 0000.0001) %MON vort_r_min                   =  -5.1390747918304E-04
(PID.TID 0000.0001) %MON vort_r_max                   =   6.4029213676054E-04
(PID.TID 0000.0001) %MON vort_a_mean                  =   8.2147625089423E-05
(PID.TID 0000.0001) %MON vort_a_sd                    =   1.0140912145181E-05
(PID.TID 0000.0001) %MON vort_p_mean                  =   8.4848847469751E-05
(PID.TID 0000.0001) %MON vort_p_sd                    =   3.4984000554137E-05
(PID.TID 0000.0001) %MON surfExpan_theta_mean         =  -2.7212062810269E-04
(PID.TID 0000.0001) %MON surfExpan_salt_mean          =  -8.0957336840320E-04
(PID.TID 0000.0001) // =======================================================
(PID.TID 0000.0001) // End MONITOR dynamic field statistics
(PID.TID 0000.0001) // =======================================================
(PID.TID 0000.0001) // =======================================================
(PID.TID 0000.0001) // Begin OBCS MONITOR field statistics
(PID.TID 0000.0001) // =======================================================
(PID.TID 0000.0001) %MON obc_E_uVel_max               =   2.6365433631124E-01
(PID.TID 0000.0001) %MON obc_E_uVel_min               =  -2.3657233006407E+00
(PID.TID 0000.0001) %MON obc_E_uVel_mean              =   4.4654495456835E-03
(PID.TID 0000.0001) %MON obc_E_uVel_sd                =   4.4461939822891E-02
(PID.TID 0000.0001) %MON obc_E_uVel_Int               =   8.6245692370913E+07
(PID.TID 0000.0001) %MON obc_W_uVel_max               =   3.2354238518164E-01
(PID.TID 0000.0001) %MON obc_W_uVel_min               =  -6.9469132651040E-01
(PID.TID 0000.0001) %MON obc_W_uVel_mean              =  -5.1164559509236E-03
(PID.TID 0000.0001) %MON obc_W_uVel_sd                =   8.6487423367429E-02
(PID.TID 0000.0001) %MON obc_W_uVel_Int               =  -3.1157335651992E+07
(PID.TID 0000.0001) %MON obc_N_vVel_max               =   3.0334207843346E-01
(PID.TID 0000.0001) %MON obc_N_vVel_min               =  -1.0083031891361E-01
(PID.TID 0000.0001) %MON obc_N_vVel_mean              =   1.9806961260499E-02
(PID.TID 0000.0001) %MON obc_N_vVel_sd                =   4.0550510916228E-02
(PID.TID 0000.0001) %MON obc_N_vVel_Int               =   1.6292120831595E+08
(PID.TID 0000.0001) %MON obc_S_vVel_max               =   5.0968092609536E-02
(PID.TID 0000.0001) %MON obc_S_vVel_min               =  -9.0893583195180E-02
(PID.TID 0000.0001) %MON obc_S_vVel_mean              =   1.8033296991296E-03
(PID.TID 0000.0001) %MON obc_S_vVel_sd                =   1.1358274515237E-02
(PID.TID 0000.0001) %MON obc_S_vVel_Int               =   2.0069075221551E+07
(PID.TID 0000.0001) %MON obc_E_theta_max              =   2.5544016569792E+01
(PID.TID 0000.0001) %MON obc_E_theta_min              =   1.4632992074720E+00
(PID.TID 0000.0001) %MON obc_E_theta_mean             =   5.4563366265693E+00
(PID.TID 0000.0001) %MON obc_E_theta_sd               =   5.6195701529637E+00
(PID.TID 0000.0001) %MON obc_W_theta_max              =   1.5385870919825E+01
(PID.TID 0000.0001) %MON obc_W_theta_min              =   1.8895911685740E+00
(PID.TID 0000.0001) %MON obc_W_theta_mean             =   4.2051180444105E+00
(PID.TID 0000.0001) %MON obc_W_theta_sd               =   2.6437508807880E+00
(PID.TID 0000.0001) %MON obc_N_theta_max              =   1.6390068125480E+01
(PID.TID 0000.0001) %MON obc_N_theta_min              =   2.0877801903954E+00
(PID.TID 0000.0001) %MON obc_N_theta_mean             =   5.8650475192267E+00
(PID.TID 0000.0001) %MON obc_N_theta_sd               =   3.8420894215485E+00
(PID.TID 0000.0001) %MON obc_S_theta_max              =   2.3210602685509E+01
(PID.TID 0000.0001) %MON obc_S_theta_min              =   1.8976912540577E+00
(PID.TID 0000.0001) %MON obc_S_theta_mean             =   5.4651282137538E+00
(PID.TID 0000.0001) %MON obc_S_theta_sd               =   4.8645003106083E+00
(PID.TID 0000.0001) %MON obc_E_salt_max               =   3.7284713348765E+01
(PID.TID 0000.0001) %MON obc_E_salt_min               =   3.4844694783800E+01
(PID.TID 0000.0001) %MON obc_E_salt_mean              =   3.5160048766464E+01
(PID.TID 0000.0001) %MON obc_E_salt_sd                =   4.6599335393348E-01
(PID.TID 0000.0001) %MON obc_W_salt_max               =   3.5867261436196E+01
(PID.TID 0000.0001) %MON obc_W_salt_min               =   3.3295063593745E+01
(PID.TID 0000.0001) %MON obc_W_salt_mean              =   3.4957941785571E+01
(PID.TID 0000.0001) %MON obc_W_salt_sd                =   2.4692303667643E-01
(PID.TID 0000.0001) %MON obc_N_salt_max               =   3.5910863972689E+01
(PID.TID 0000.0001) %MON obc_N_salt_min               =   3.4917014903356E+01
(PID.TID 0000.0001) %MON obc_N_salt_mean              =   3.5230513628368E+01
(PID.TID 0000.0001) %MON obc_N_salt_sd                =   3.0056360698063E-01
(PID.TID 0000.0001) %MON obc_S_salt_max               =   3.7318284671165E+01
(PID.TID 0000.0001) %MON obc_S_salt_min               =   3.4884963751133E+01
(PID.TID 0000.0001) %MON obc_S_salt_mean              =   3.5182817615851E+01
(PID.TID 0000.0001) %MON obc_S_salt_sd                =   4.4106029896541E-01
(PID.TID 0000.0001) // =======================================================
(PID.TID 0000.0001) // End OBCS MONITOR field statistics
(PID.TID 0000.0001) // =======================================================
(PID.TID 0000.0001) // =======================================================
(PID.TID 0000.0001) // Begin MONITOR EXF statistics
(PID.TID 0000.0001) // =======================================================
(PID.TID 0000.0001) %MON exf_tsnumber                 =                     9
(PID.TID 0000.0001) %MON exf_time_sec                 =   2.1600000000000E+03
(PID.TID 0000.0001) %MON exf_ustress_max              =   5.1140226974649E-01
(PID.TID 0000.0001) %MON exf_ustress_min              =  -3.2123976702291E-01
(PID.TID 0000.0001) %MON exf_ustress_mean             =   6.9835964622057E-02
(PID.TID 0000.0001) %MON exf_ustress_sd               =   1.4008028660413E-01
(PID.TID 0000.0001) %MON exf_ustress_del2             =   2.9902604878461E-07
(PID.TID 0000.0001) %MON exf_vstress_max              =   5.7365108282917E-01
(PID.TID 0000.0001) %MON exf_vstress_min              =  -1.7745500732035E-01
(PID.TID 0000.0001) %MON exf_vstress_mean             =   9.7186307874419E-02
(PID.TID 0000.0001) %MON exf_vstress_sd               =   1.3466286336750E-01
(PID.TID 0000.0001) %MON exf_vstress_del2             =   2.5212154300937E-07
(PID.TID 0000.0001) %MON exf_hflux_max                =   1.0593916602876E+03
(PID.TID 0000.0001) %MON exf_hflux_min                =  -1.3059941934772E+02
(PID.TID 0000.0001) %MON exf_hflux_mean               =   3.2273520044741E+02
(PID.TID 0000.0001) %MON exf_hflux_sd                 =   2.1078324783678E+02
(PID.TID 0000.0001) %MON exf_hflux_del2               =   8.6241092939889E-02
(PID.TID 0000.0001) %MON exf_sflux_max                =   2.2586799867343E-07
(PID.TID 0000.0001) %MON exf_sflux_min                =  -1.0771303156552E-06
(PID.TID 0000.0001) %MON exf_sflux_mean               =   4.1714870405071E-08
(PID.TID 0000.0001) %MON exf_sflux_sd                 =   1.0898546865186E-07
(PID.TID 0000.0001) %MON exf_sflux_del2               =   2.4142608167733E-11
(PID.TID 0000.0001) %MON exf_uwind_max                =   1.5610621692486E+01
(PID.TID 0000.0001) %MON exf_uwind_min                =  -1.3193545986792E+01
(PID.TID 0000.0001) %MON exf_uwind_mean               =   2.9344890112679E+00
(PID.TID 0000.0001) %MON exf_uwind_sd                 =   6.7688280116407E+00
(PID.TID 0000.0001) %MON exf_uwind_del2               =   1.6372011107334E-03
(PID.TID 0000.0001) %MON exf_vwind_max                =   1.4856959055215E+01
(PID.TID 0000.0001) %MON exf_vwind_min                =  -1.0472485695497E+01
(PID.TID 0000.0001) %MON exf_vwind_mean               =   4.6128971228541E+00
(PID.TID 0000.0001) %MON exf_vwind_sd                 =   5.9513666261076E+00
(PID.TID 0000.0001) %MON exf_vwind_del2               =   1.6832024026100E-03
(PID.TID 0000.0001) %MON exf_wspeed_max               =   1.8332276001828E+01
(PID.TID 0000.0001) %MON exf_wspeed_min               =   5.6299235962183E-02
(PID.TID 0000.0001) %MON exf_wspeed_mean              =   9.9210117507942E+00
(PID.TID 0000.0001) %MON exf_wspeed_sd                =   3.5636173803329E+00
(PID.TID 0000.0001) %MON exf_wspeed_del2              =   2.3480448031301E-03
(PID.TID 0000.0001) %MON exf_atemp_max                =   2.9778956924253E+02
(PID.TID 0000.0001) %MON exf_atemp_min                =   2.7434401729668E+02
(PID.TID 0000.0001) %MON exf_atemp_mean               =   2.8987815372564E+02
(PID.TID 0000.0001) %MON exf_atemp_sd                 =   4.3045638697868E+00
(PID.TID 0000.0001) %MON exf_atemp_del2               =   3.7038539933484E-03
(PID.TID 0000.0001) %MON exf_aqh_max                  =   1.4847615282650E-02
(PID.TID 0000.0001) %MON exf_aqh_min                  =   3.1085218805959E-03
(PID.TID 0000.0001) %MON exf_aqh_mean                 =   9.5850794789641E-03
(PID.TID 0000.0001) %MON exf_aqh_sd                   =   2.2577222241931E-03
(PID.TID 0000.0001) %MON exf_aqh_del2                 =   2.1302305891765E-06
(PID.TID 0000.0001) %MON exf_lwflux_max               =   1.5673719306032E+02
(PID.TID 0000.0001) %MON exf_lwflux_min               =  -1.5860179805593E+00
(PID.TID 0000.0001) %MON exf_lwflux_mean              =   7.2738770021953E+01
(PID.TID 0000.0001) %MON exf_lwflux_sd                =   2.7953389795127E+01
(PID.TID 0000.0001) %MON exf_lwflux_del2              =   1.7284875854196E-02
(PID.TID 0000.0001) %MON exf_evap_max                 =   2.4847576385320E-07
(PID.TID 0000.0001) %MON exf_evap_min                 =  -4.1602958757610E-08
(PID.TID 0000.0001) %MON exf_evap_mean                =   7.9315858823178E-08
(PID.TID 0000.0001) %MON exf_evap_sd                  =   5.5663032138193E-08
(PID.TID 0000.0001) %MON exf_evap_del2                =   2.1447657561187E-11
(PID.TID 0000.0001) %MON exf_precip_max               =   1.0760965922883E-06
(PID.TID 0000.0001) %MON exf_precip_min               =   0.0000000000000E+00
(PID.TID 0000.0001) %MON exf_precip_mean              =   3.6012508221671E-08
(PID.TID 0000.0001) %MON exf_precip_sd                =   8.2959461798874E-08
(PID.TID 0000.0001) %MON exf_precip_del2              =   1.8191233847753E-11
(PID.TID 0000.0001) %MON exf_swflux_max               =   0.0000000000000E+00
(PID.TID 0000.0001) %MON exf_swflux_min               =  -1.4236987038962E+01
(PID.TID 0000.0001) %MON exf_swflux_mean              =  -4.7417363888010E-01
(PID.TID 0000.0001) %MON exf_swflux_sd                =   1.5035881319013E+00
(PID.TID 0000.0001) %MON exf_swflux_del2              =   3.2524438537013E-04
(PID.TID 0000.0001) %MON exf_swdown_max               =   1.5818874487736E+01
(PID.TID 0000.0001) %MON exf_swdown_min               =   0.0000000000000E+00
(PID.TID 0000.0001) %MON exf_swdown_mean              =   5.2685959875567E-01
(PID.TID 0000.0001) %MON exf_swdown_sd                =   1.6706534798904E+00
(PID.TID 0000.0001) %MON exf_swdown_del2              =   3.6138265041126E-04
(PID.TID 0000.0001) %MON exf_lwdown_max               =   4.0267938606550E+02
(PID.TID 0000.0001) %MON exf_lwdown_min               =   2.4880545878788E+02
(PID.TID 0000.0001) %MON exf_lwdown_mean              =   3.4206053951175E+02
(PID.TID 0000.0001) %MON exf_lwdown_sd                =   2.7550838469439E+01
(PID.TID 0000.0001) %MON exf_lwdown_del2              =   7.4683575952591E-02
(PID.TID 0000.0001) %MON exf_apressure_max            =   1.0297442353446E+05
(PID.TID 0000.0001) %MON exf_apressure_min            =   9.9650899756850E+04
(PID.TID 0000.0001) %MON exf_apressure_mean           =   1.0184280267480E+05
(PID.TID 0000.0001) %MON exf_apressure_sd             =   8.3622283721466E+02
(PID.TID 0000.0001) %MON exf_apressure_del2           =   2.2280046354445E+01
(PID.TID 0000.0001) %MON exf_runoff_max               =   4.4374822325994E-08
(PID.TID 0000.0001) %MON exf_runoff_min               =   0.0000000000000E+00
(PID.TID 0000.0001) %MON exf_runoff_mean              =   1.5884801964352E-09
(PID.TID 0000.0001) %MON exf_runoff_sd                =   5.3901974500338E-09
(PID.TID 0000.0001) %MON exf_runoff_del2              =   1.2741192460478E-12
(PID.TID 0000.0001) // =======================================================
(PID.TID 0000.0001) // End MONITOR EXF statistics
(PID.TID 0000.0001) // =======================================================
 cg2d: Sum(rhs),rhsMax =   1.14948822205691E+03  4.10137657522865E-02
(PID.TID 0000.0001)      cg2d_init_res =   1.66672939598325E+00
(PID.TID 0000.0001)      cg2d_iters(min,last) =      -1     314
(PID.TID 0000.0001)      cg2d_last_res =   7.04952465105114E-12
(PID.TID 0000.0001) // =======================================================
(PID.TID 0000.0001) // Begin MONITOR dynamic field statistics
(PID.TID 0000.0001) // =======================================================
(PID.TID 0000.0001) %MON time_tsnumber                =                    10
(PID.TID 0000.0001) %MON time_secondsf                =   2.4000000000000E+03
(PID.TID 0000.0001) %MON dynstat_eta_max              =   9.5846843127687E-01
(PID.TID 0000.0001) %MON dynstat_eta_min              =  -1.3538240143368E+00
(PID.TID 0000.0001) %MON dynstat_eta_mean             =  -3.9090589144537E-02
(PID.TID 0000.0001) %MON dynstat_eta_sd               =   2.3889504627211E-01
(PID.TID 0000.0001) %MON dynstat_eta_del2             =   2.4069567754257E-06
(PID.TID 0000.0001) %MON dynstat_uvel_max             =   8.9045639178331E-01
(PID.TID 0000.0001) %MON dynstat_uvel_min             =  -2.4273442097546E+00
(PID.TID 0000.0001) %MON dynstat_uvel_mean            =   5.7284103552652E-03
(PID.TID 0000.0001) %MON dynstat_uvel_sd              =   5.0477256341802E-02
(PID.TID 0000.0001) %MON dynstat_uvel_del2            =   4.7283853609988E-07
(PID.TID 0000.0001) %MON dynstat_vvel_max             =   1.2890131157708E+00
(PID.TID 0000.0001) %MON dynstat_vvel_min             =  -7.4275693807021E-01
(PID.TID 0000.0001) %MON dynstat_vvel_mean            =   4.4689797920803E-03
(PID.TID 0000.0001) %MON dynstat_vvel_sd              =   5.0930080786631E-02
(PID.TID 0000.0001) %MON dynstat_vvel_del2            =   5.0391989725076E-07
(PID.TID 0000.0001) %MON dynstat_wvel_max             =   3.4995526986705E-02
(PID.TID 0000.0001) %MON dynstat_wvel_min             =  -3.0243025227418E-02
(PID.TID 0000.0001) %MON dynstat_wvel_mean            =  -1.3864975854459E-05
(PID.TID 0000.0001) %MON dynstat_wvel_sd              =   6.0196750002382E-04
(PID.TID 0000.0001) %MON dynstat_wvel_del2            =   7.5256205009885E-08
(PID.TID 0000.0001) %MON dynstat_theta_max            =   2.6135344318917E+01
(PID.TID 0000.0001) %MON dynstat_theta_min            =   1.4688650028509E+00
(PID.TID 0000.0001) %MON dynstat_theta_mean           =   5.5098465119661E+00
(PID.TID 0000.0001) %MON dynstat_theta_sd             =   4.7732951382732E+00
(PID.TID 0000.0001) %MON dynstat_theta_del2           =   4.0257178422421E-06
(PID.TID 0000.0001) %MON dynstat_salt_max             =   3.9160061871037E+01
(PID.TID 0000.0001) %MON dynstat_salt_min             =   3.3091005517939E+01
(PID.TID 0000.0001) %MON dynstat_salt_mean            =   3.5173366231779E+01
(PID.TID 0000.0001) %MON dynstat_salt_sd              =   3.7891563060977E-01
(PID.TID 0000.0001) %MON dynstat_salt_del2            =   5.2151167295065E-07
(PID.TID 0000.0001) %MON dynstat_sst_max              =   2.6124890998536E+01
(PID.TID 0000.0001) %MON dynstat_sst_min              =   3.9395835295762E+00
(PID.TID 0000.0001) %MON dynstat_sst_mean             =   1.9635591570351E+01
(PID.TID 0000.0001) %MON dynstat_sst_sd               =   3.6360098012152E+00
(PID.TID 0000.0001) %MON dynstat_sst_del2             =   1.9186883598789E-05
(PID.TID 0000.0001) %MON dynstat_sss_max              =   3.7335429329285E+01
(PID.TID 0000.0001) %MON dynstat_sss_min              =   3.3091005517939E+01
(PID.TID 0000.0001) %MON dynstat_sss_mean             =   3.5868495301534E+01
(PID.TID 0000.0001) %MON dynstat_sss_sd               =   4.8741287455767E-01
(PID.TID 0000.0001) %MON dynstat_sss_del2             =   4.9307489129683E-06
(PID.TID 0000.0001) %MON forcing_qnet_max             =   1.0753102001943E+03
(PID.TID 0000.0001) %MON forcing_qnet_min             =  -1.8033155974148E+02
(PID.TID 0000.0001) %MON forcing_qnet_mean            =   3.2707638343351E+02
(PID.TID 0000.0001) %MON forcing_qnet_sd              =   2.1660153637425E+02
(PID.TID 0000.0001) %MON forcing_qnet_del2            =   1.1804447308496E-03
(PID.TID 0000.0001) %MON forcing_qsw_max              =   0.0000000000000E+00
(PID.TID 0000.0001) %MON forcing_qsw_min              =  -1.4236987038962E+01
(PID.TID 0000.0001) %MON forcing_qsw_mean             =  -4.7417363888010E-01
(PID.TID 0000.0001) %MON forcing_qsw_sd               =   1.5035881319013E+00
(PID.TID 0000.0001) %MON forcing_qsw_del2             =   4.8421575495789E-06
(PID.TID 0000.0001) %MON forcing_empmr_max            =   2.2586799867343E-04
(PID.TID 0000.0001) %MON forcing_empmr_min            =  -1.0771303156552E-03
(PID.TID 0000.0001) %MON forcing_empmr_mean           =   4.1714870405071E-05
(PID.TID 0000.0001) %MON forcing_empmr_sd             =   1.0898546865186E-04
(PID.TID 0000.0001) %MON forcing_empmr_del2           =   9.2660010126503E-10
(PID.TID 0000.0001) %MON forcing_fu_max               =   5.1140046672393E-01
(PID.TID 0000.0001) %MON forcing_fu_min               =  -3.2123598758254E-01
(PID.TID 0000.0001) %MON forcing_fu_mean              =   6.9941796353357E-02
(PID.TID 0000.0001) %MON forcing_fu_sd                =   1.4009066102418E-01
(PID.TID 0000.0001) %MON forcing_fu_del2              =   2.7600855189338E-07
(PID.TID 0000.0001) %MON forcing_fv_max               =   5.7360469934842E-01
(PID.TID 0000.0001) %MON forcing_fv_min               =  -1.7744703151648E-01
(PID.TID 0000.0001) %MON forcing_fv_mean              =   9.7212453437067E-02
(PID.TID 0000.0001) %MON forcing_fv_sd                =   1.3467196486268E-01
(PID.TID 0000.0001) %MON forcing_fv_del2              =   2.2824614010742E-07
(PID.TID 0000.0001) %MON trAdv_CFL_u_max              =   1.5336785280387E-01
(PID.TID 0000.0001) %MON trAdv_CFL_v_max              =   7.8205407922115E-02
(PID.TID 0000.0001) %MON trAdv_CFL_w_max              =   4.9783342021066E-01
(PID.TID 0000.0001) %MON advcfl_uvel_max              =   1.5341388736468E-01
(PID.TID 0000.0001) %MON advcfl_vvel_max              =   7.8205409319810E-02
(PID.TID 0000.0001) %MON advcfl_wvel_max              =   4.9397424641058E-01
(PID.TID 0000.0001) %MON advcfl_W_hf_max              =   4.9783342021066E-01
(PID.TID 0000.0001) %MON pe_b_mean                    =  -8.7043445823539E-04
(PID.TID 0000.0001) %MON ke_max                       =   2.6547336896446E+00
(PID.TID 0000.0001) %MON ke_mean                      =   2.5783175478071E-03
(PID.TID 0000.0001) %MON ke_vol                       =   4.5818637829946E+16
(PID.TID 0000.0001) %MON vort_r_min                   =  -5.1495044194524E-04
(PID.TID 0000.0001) %MON vort_r_max                   =   6.8041945822146E-04
(PID.TID 0000.0001) %MON vort_a_mean                  =   8.2147624282099E-05
(PID.TID 0000.0001) %MON vort_a_sd                    =   1.0144522059874E-05
(PID.TID 0000.0001) %MON vort_p_mean                  =   8.4848846635881E-05
(PID.TID 0000.0001) %MON vort_p_sd                    =   3.4986795213246E-05
(PID.TID 0000.0001) %MON surfExpan_theta_mean         =  -3.1651999864948E-04
(PID.TID 0000.0001) %MON surfExpan_salt_mean          =  -8.7732169795151E-04
(PID.TID 0000.0001) // =======================================================
(PID.TID 0000.0001) // End MONITOR dynamic field statistics
(PID.TID 0000.0001) // =======================================================
(PID.TID 0000.0001) // =======================================================
(PID.TID 0000.0001) // Begin OBCS MONITOR field statistics
(PID.TID 0000.0001) // =======================================================
(PID.TID 0000.0001) %MON obc_E_uVel_max               =   2.6373864313116E-01
(PID.TID 0000.0001) %MON obc_E_uVel_min               =  -2.4273442097546E+00
(PID.TID 0000.0001) %MON obc_E_uVel_mean              =   4.9496481534782E-03
(PID.TID 0000.0001) %MON obc_E_uVel_sd                =   4.4565417105147E-02
(PID.TID 0000.0001) %MON obc_E_uVel_Int               =   9.5597504265115E+07
(PID.TID 0000.0001) %MON obc_W_uVel_max               =   3.2381870407336E-01
(PID.TID 0000.0001) %MON obc_W_uVel_min               =  -6.9453860443540E-01
(PID.TID 0000.0001) %MON obc_W_uVel_mean              =  -4.9071444534522E-03
(PID.TID 0000.0001) %MON obc_W_uVel_sd                =   8.6377443039543E-02
(PID.TID 0000.0001) %MON obc_W_uVel_Int               =  -2.9882705586749E+07
(PID.TID 0000.0001) %MON obc_N_vVel_max               =   3.0351742983994E-01
(PID.TID 0000.0001) %MON obc_N_vVel_min               =  -1.0054054941658E-01
(PID.TID 0000.0001) %MON obc_N_vVel_mean              =   1.9923193255025E-02
(PID.TID 0000.0001) %MON obc_N_vVel_sd                =   4.0623889311225E-02
(PID.TID 0000.0001) %MON obc_N_vVel_Int               =   1.6387726900311E+08
(PID.TID 0000.0001) %MON obc_S_vVel_max               =   5.0044144431578E-02
(PID.TID 0000.0001) %MON obc_S_vVel_min               =  -9.1351955129159E-02
(PID.TID 0000.0001) %MON obc_S_vVel_mean              =   7.4276522291729E-04
(PID.TID 0000.0001) %MON obc_S_vVel_sd                =   1.1329720171864E-02
(PID.TID 0000.0001) %MON obc_S_vVel_Int               =   8.2661596145586E+06
(PID.TID 0000.0001) %MON obc_E_theta_max              =   2.5543913821012E+01
(PID.TID 0000.0001) %MON obc_E_theta_min              =   1.4632996037592E+00
(PID.TID 0000.0001) %MON obc_E_theta_mean             =   5.4563362885136E+00
(PID.TID 0000.0001) %MON obc_E_theta_sd               =   5.6195665395026E+00
(PID.TID 0000.0001) %MON obc_W_theta_max              =   1.5385751006213E+01
(PID.TID 0000.0001) %MON obc_W_theta_min              =   1.8895912176394E+00
(PID.TID 0000.0001) %MON obc_W_theta_mean             =   4.2051058238916E+00
(PID.TID 0000.0001) %MON obc_W_theta_sd               =   2.6437306382552E+00
(PID.TID 0000.0001) %MON obc_N_theta_max              =   1.6389980023293E+01
(PID.TID 0000.0001) %MON obc_N_theta_min              =   2.0877769152215E+00
(PID.TID 0000.0001) %MON obc_N_theta_mean             =   5.8650437156347E+00
(PID.TID 0000.0001) %MON obc_N_theta_sd               =   3.8420835301483E+00
(PID.TID 0000.0001) %MON obc_S_theta_max              =   2.3210518748418E+01
(PID.TID 0000.0001) %MON obc_S_theta_min              =   1.8976912433199E+00
(PID.TID 0000.0001) %MON obc_S_theta_mean             =   5.4651265983135E+00
(PID.TID 0000.0001) %MON obc_S_theta_sd               =   4.8644958977174E+00
(PID.TID 0000.0001) %MON obc_E_salt_max               =   3.7284701279247E+01
(PID.TID 0000.0001) %MON obc_E_salt_min               =   3.4844694836021E+01
(PID.TID 0000.0001) %MON obc_E_salt_mean              =   3.5160048836323E+01
(PID.TID 0000.0001) %MON obc_E_salt_sd                =   4.6599338353581E-01
(PID.TID 0000.0001) %MON obc_W_salt_max               =   3.5867261939252E+01
(PID.TID 0000.0001) %MON obc_W_salt_min               =   3.3295069096378E+01
(PID.TID 0000.0001) %MON obc_W_salt_mean              =   3.4957941260268E+01
(PID.TID 0000.0001) %MON obc_W_salt_sd                =   2.4692230240439E-01
(PID.TID 0000.0001) %MON obc_N_salt_max               =   3.5910863564326E+01
(PID.TID 0000.0001) %MON obc_N_salt_min               =   3.4917014889431E+01
(PID.TID 0000.0001) %MON obc_N_salt_mean              =   3.5230513502154E+01
(PID.TID 0000.0001) %MON obc_N_salt_sd                =   3.0056368583640E-01
(PID.TID 0000.0001) %MON obc_S_salt_max               =   3.7318277786781E+01
(PID.TID 0000.0001) %MON obc_S_salt_min               =   3.4884963747303E+01
(PID.TID 0000.0001) %MON obc_S_salt_mean              =   3.5182817297887E+01
(PID.TID 0000.0001) %MON obc_S_salt_sd                =   4.4105926206456E-01
(PID.TID 0000.0001) // =======================================================
(PID.TID 0000.0001) // End OBCS MONITOR field statistics
(PID.TID 0000.0001) // =======================================================
(PID.TID 0000.0001) // =======================================================
(PID.TID 0000.0001) // Begin MONITOR EXF statistics
(PID.TID 0000.0001) // =======================================================
(PID.TID 0000.0001) %MON exf_tsnumber                 =                    10
(PID.TID 0000.0001) %MON exf_time_sec                 =   2.4000000000000E+03
(PID.TID 0000.0001) %MON exf_ustress_max              =   5.0922548827782E-01
(PID.TID 0000.0001) %MON exf_ustress_min              =  -3.2372658443164E-01
(PID.TID 0000.0001) %MON exf_ustress_mean             =   6.9545401583011E-02
(PID.TID 0000.0001) %MON exf_ustress_sd               =   1.3998023023058E-01
(PID.TID 0000.0001) %MON exf_ustress_del2             =   3.0278116725405E-07
(PID.TID 0000.0001) %MON exf_vstress_max              =   5.7156234681720E-01
(PID.TID 0000.0001) %MON exf_vstress_min              =  -1.7698922371746E-01
(PID.TID 0000.0001) %MON exf_vstress_mean             =   9.6972610485438E-02
(PID.TID 0000.0001) %MON exf_vstress_sd               =   1.3449509811830E-01
(PID.TID 0000.0001) %MON exf_vstress_del2             =   2.5293923817648E-07
(PID.TID 0000.0001) %MON exf_hflux_max                =   1.0581064850460E+03
(PID.TID 0000.0001) %MON exf_hflux_min                =  -1.2981942339566E+02
(PID.TID 0000.0001) %MON exf_hflux_mean               =   3.2251431512601E+02
(PID.TID 0000.0001) %MON exf_hflux_sd                 =   2.1051013573776E+02
(PID.TID 0000.0001) %MON exf_hflux_del2               =   8.6156474522928E-02
(PID.TID 0000.0001) %MON exf_sflux_max                =   2.2545579669941E-07
(PID.TID 0000.0001) %MON exf_sflux_min                =  -1.0904388303603E-06
(PID.TID 0000.0001) %MON exf_sflux_mean               =   4.1547313588820E-08
(PID.TID 0000.0001) %MON exf_sflux_sd                 =   1.0957451230962E-07
(PID.TID 0000.0001) %MON exf_sflux_del2               =   2.4228247400067E-11
(PID.TID 0000.0001) %MON exf_uwind_max                =   1.5572526907761E+01
(PID.TID 0000.0001) %MON exf_uwind_min                =  -1.3232420005530E+01
(PID.TID 0000.0001) %MON exf_uwind_mean               =   2.9257716873847E+00
(PID.TID 0000.0001) %MON exf_uwind_sd                 =   6.7730269540641E+00
(PID.TID 0000.0001) %MON exf_uwind_del2               =   1.6372596184764E-03
(PID.TID 0000.0001) %MON exf_vwind_max                =   1.4834845867996E+01
(PID.TID 0000.0001) %MON exf_vwind_min                =  -1.0454796315742E+01
(PID.TID 0000.0001) %MON exf_vwind_mean               =   4.6065915937597E+00
(PID.TID 0000.0001) %MON exf_vwind_sd                 =   5.9466105841084E+00
(PID.TID 0000.0001) %MON exf_vwind_del2               =   1.6817614521260E-03
(PID.TID 0000.0001) %MON exf_wspeed_max               =   1.8317492352362E+01
(PID.TID 0000.0001) %MON exf_wspeed_min               =   3.4046247502612E-02
(PID.TID 0000.0001) %MON exf_wspeed_mean              =   9.9164515606202E+00
(PID.TID 0000.0001) %MON exf_wspeed_sd                =   3.5610231793380E+00
(PID.TID 0000.0001) %MON exf_wspeed_del2              =   2.3470534730451E-03
(PID.TID 0000.0001) %MON exf_atemp_max                =   2.9778911521393E+02
(PID.TID 0000.0001) %MON exf_atemp_min                =   2.7435514444983E+02
(PID.TID 0000.0001) %MON exf_atemp_mean               =   2.8987822723940E+02
(PID.TID 0000.0001) %MON exf_atemp_sd                 =   4.3013027363614E+00
(PID.TID 0000.0001) %MON exf_atemp_del2               =   3.7038394957674E-03
(PID.TID 0000.0001) %MON exf_aqh_max                  =   1.4869219944487E-02
(PID.TID 0000.0001) %MON exf_aqh_min                  =   3.1160689689474E-03
(PID.TID 0000.0001) %MON exf_aqh_mean                 =   9.5846962969250E-03
(PID.TID 0000.0001) %MON exf_aqh_sd                   =   2.2555789317945E-03
(PID.TID 0000.0001) %MON exf_aqh_del2                 =   2.1301064469291E-06
(PID.TID 0000.0001) %MON exf_lwflux_max               =   1.5652649476651E+02
(PID.TID 0000.0001) %MON exf_lwflux_min               =  -2.2479374698263E+00
(PID.TID 0000.0001) %MON exf_lwflux_mean              =   7.2732945664055E+01
(PID.TID 0000.0001) %MON exf_lwflux_sd                =   2.7985347825408E+01
(PID.TID 0000.0001) %MON exf_lwflux_del2              =   1.7284967268963E-02
(PID.TID 0000.0001) %MON exf_evap_max                 =   2.4818818730591E-07
(PID.TID 0000.0001) %MON exf_evap_min                 =  -4.1460456004614E-08
(PID.TID 0000.0001) %MON exf_evap_mean                =   7.9243160232468E-08
(PID.TID 0000.0001) %MON exf_evap_sd                  =   5.5580200988147E-08
(PID.TID 0000.0001) %MON exf_evap_del2                =   2.1422862198259E-11
(PID.TID 0000.0001) %MON exf_precip_max               =   1.0892069018517E-06
(PID.TID 0000.0001) %MON exf_precip_min               =   0.0000000000000E+00
(PID.TID 0000.0001) %MON exf_precip_mean              =   3.6107366447212E-08
(PID.TID 0000.0001) %MON exf_precip_sd                =   8.3647845186812E-08
(PID.TID 0000.0001) %MON exf_precip_del2              =   1.8320851866541E-11
(PID.TID 0000.0001) %MON exf_swflux_max               =   0.0000000000000E+00
(PID.TID 0000.0001) %MON exf_swflux_min               =  -1.3182395406446E+01
(PID.TID 0000.0001) %MON exf_swflux_mean              =  -4.3904966562972E-01
(PID.TID 0000.0001) %MON exf_swflux_sd                =   1.3922112332420E+00
(PID.TID 0000.0001) %MON exf_swflux_del2              =   3.0115220867605E-04
(PID.TID 0000.0001) %MON exf_swdown_max               =   1.4647106007163E+01
(PID.TID 0000.0001) %MON exf_swdown_min               =   0.0000000000000E+00
(PID.TID 0000.0001) %MON exf_swdown_mean              =   4.8783296181080E-01
(PID.TID 0000.0001) %MON exf_swdown_sd                =   1.5469013702689E+00
(PID.TID 0000.0001) %MON exf_swdown_del2              =   3.3461356519561E-04
(PID.TID 0000.0001) %MON exf_lwdown_max               =   4.0278137979986E+02
(PID.TID 0000.0001) %MON exf_lwdown_min               =   2.4874552752219E+02
(PID.TID 0000.0001) %MON exf_lwdown_mean              =   3.4206151759281E+02
(PID.TID 0000.0001) %MON exf_lwdown_sd                =   2.7567035553536E+01
(PID.TID 0000.0001) %MON exf_lwdown_del2              =   7.4684487688869E-02
(PID.TID 0000.0001) %MON exf_apressure_max            =   1.0297189829626E+05
(PID.TID 0000.0001) %MON exf_apressure_min            =   9.9649738224661E+04
(PID.TID 0000.0001) %MON exf_apressure_mean           =   1.0184116896717E+05
(PID.TID 0000.0001) %MON exf_apressure_sd             =   8.3567349772926E+02
(PID.TID 0000.0001) %MON exf_apressure_del2           =   2.2279698367361E+01
(PID.TID 0000.0001) %MON exf_runoff_max               =   4.4374822325994E-08
(PID.TID 0000.0001) %MON exf_runoff_min               =   0.0000000000000E+00
(PID.TID 0000.0001) %MON exf_runoff_mean              =   1.5884801964352E-09
(PID.TID 0000.0001) %MON exf_runoff_sd                =   5.3901974500338E-09
(PID.TID 0000.0001) %MON exf_runoff_del2              =   1.2741192460478E-12
(PID.TID 0000.0001) // =======================================================
(PID.TID 0000.0001) // End MONITOR EXF statistics
(PID.TID 0000.0001) // =======================================================
 cg2d: Sum(rhs),rhsMax =   1.33781804690219E+03  4.71841768195297E-02
(PID.TID 0000.0001)      cg2d_init_res =   1.63445401385048E+00
(PID.TID 0000.0001)      cg2d_iters(min,last) =      -1     313
(PID.TID 0000.0001)      cg2d_last_res =   6.99571554837846E-12
(PID.TID 0000.0001) // =======================================================
(PID.TID 0000.0001) // Begin MONITOR dynamic field statistics
(PID.TID 0000.0001) // =======================================================
(PID.TID 0000.0001) %MON time_tsnumber                =                    11
(PID.TID 0000.0001) %MON time_secondsf                =   2.6400000000000E+03
(PID.TID 0000.0001) %MON dynstat_eta_max              =   9.1126853128306E-01
(PID.TID 0000.0001) %MON dynstat_eta_min              =  -1.2195952229701E+00
(PID.TID 0000.0001) %MON dynstat_eta_mean             =  -4.5495112188292E-02
(PID.TID 0000.0001) %MON dynstat_eta_sd               =   2.4981574901032E-01
(PID.TID 0000.0001) %MON dynstat_eta_del2             =   2.3505738540890E-06
(PID.TID 0000.0001) %MON dynstat_uvel_max             =   8.8969410582042E-01
(PID.TID 0000.0001) %MON dynstat_uvel_min             =  -2.4884757366814E+00
(PID.TID 0000.0001) %MON dynstat_uvel_mean            =   5.9950760091404E-03
(PID.TID 0000.0001) %MON dynstat_uvel_sd              =   5.0567377687535E-02
(PID.TID 0000.0001) %MON dynstat_uvel_del2            =   4.8120776272756E-07
(PID.TID 0000.0001) %MON dynstat_vvel_max             =   1.2835552265716E+00
(PID.TID 0000.0001) %MON dynstat_vvel_min             =  -7.2113396014390E-01
(PID.TID 0000.0001) %MON dynstat_vvel_mean            =   4.5313223044206E-03
(PID.TID 0000.0001) %MON dynstat_vvel_sd              =   5.0927446466174E-02
(PID.TID 0000.0001) %MON dynstat_vvel_del2            =   5.1194077314489E-07
(PID.TID 0000.0001) %MON dynstat_wvel_max             =   3.4426862791874E-02
(PID.TID 0000.0001) %MON dynstat_wvel_min             =  -3.1218833141860E-02
(PID.TID 0000.0001) %MON dynstat_wvel_mean            =  -1.4991922544571E-05
(PID.TID 0000.0001) %MON dynstat_wvel_sd              =   6.0483498394518E-04
(PID.TID 0000.0001) %MON dynstat_wvel_del2            =   7.4049208162007E-08
(PID.TID 0000.0001) %MON dynstat_theta_max            =   2.6135479973864E+01
(PID.TID 0000.0001) %MON dynstat_theta_min            =   1.4688651909730E+00
(PID.TID 0000.0001) %MON dynstat_theta_mean           =   5.5098535765668E+00
(PID.TID 0000.0001) %MON dynstat_theta_sd             =   4.7732864666271E+00
(PID.TID 0000.0001) %MON dynstat_theta_del2           =   4.0287617370746E-06
(PID.TID 0000.0001) %MON dynstat_salt_max             =   3.9156173445133E+01
(PID.TID 0000.0001) %MON dynstat_salt_min             =   3.3091148787341E+01
(PID.TID 0000.0001) %MON dynstat_salt_mean            =   3.5173366363786E+01
(PID.TID 0000.0001) %MON dynstat_salt_sd              =   3.7891688683847E-01
(PID.TID 0000.0001) %MON dynstat_salt_del2            =   5.2462994844390E-07
(PID.TID 0000.0001) %MON dynstat_sst_max              =   2.6125625707026E+01
(PID.TID 0000.0001) %MON dynstat_sst_min              =   3.9238342305713E+00
(PID.TID 0000.0001) %MON dynstat_sst_mean             =   1.9634762031038E+01
(PID.TID 0000.0001) %MON dynstat_sst_sd               =   3.6358854961798E+00
(PID.TID 0000.0001) %MON dynstat_sst_del2             =   1.9219978792896E-05
(PID.TID 0000.0001) %MON dynstat_sss_max              =   3.7335482736266E+01
(PID.TID 0000.0001) %MON dynstat_sss_min              =   3.3091148787341E+01
(PID.TID 0000.0001) %MON dynstat_sss_mean             =   3.5868529716180E+01
(PID.TID 0000.0001) %MON dynstat_sss_sd               =   4.8742686108557E-01
(PID.TID 0000.0001) %MON dynstat_sss_del2             =   4.9239057050246E-06
(PID.TID 0000.0001) %MON forcing_qnet_max             =   1.0739818525241E+03
(PID.TID 0000.0001) %MON forcing_qnet_min             =  -1.8219522712426E+02
(PID.TID 0000.0001) %MON forcing_qnet_mean            =   3.2684230709804E+02
(PID.TID 0000.0001) %MON forcing_qnet_sd              =   2.1633878790468E+02
(PID.TID 0000.0001) %MON forcing_qnet_del2            =   1.1786936278796E-03
(PID.TID 0000.0001) %MON forcing_qsw_max              =   0.0000000000000E+00
(PID.TID 0000.0001) %MON forcing_qsw_min              =  -1.3182395406446E+01
(PID.TID 0000.0001) %MON forcing_qsw_mean             =  -4.3904966562972E-01
(PID.TID 0000.0001) %MON forcing_qsw_sd               =   1.3922112332420E+00
(PID.TID 0000.0001) %MON forcing_qsw_del2             =   4.4834792125730E-06
(PID.TID 0000.0001) %MON forcing_empmr_max            =   2.2545579669941E-04
(PID.TID 0000.0001) %MON forcing_empmr_min            =  -1.0904388303603E-03
(PID.TID 0000.0001) %MON forcing_empmr_mean           =   4.1547313588820E-05
(PID.TID 0000.0001) %MON forcing_empmr_sd             =   1.0957451230962E-04
(PID.TID 0000.0001) %MON forcing_empmr_del2           =   9.4071082145659E-10
(PID.TID 0000.0001) %MON forcing_fu_max               =   5.0920380828822E-01
(PID.TID 0000.0001) %MON forcing_fu_min               =  -3.2371030363073E-01
(PID.TID 0000.0001) %MON forcing_fu_mean              =   6.9650735983604E-02
(PID.TID 0000.0001) %MON forcing_fu_sd                =   1.3999035000937E-01
(PID.TID 0000.0001) %MON forcing_fu_del2              =   2.7901599225197E-07
(PID.TID 0000.0001) %MON forcing_fv_max               =   5.7150642727590E-01
(PID.TID 0000.0001) %MON forcing_fv_min               =  -1.7697422932562E-01
(PID.TID 0000.0001) %MON forcing_fv_mean              =   9.6998478544190E-02
(PID.TID 0000.0001) %MON forcing_fv_sd                =   1.3450418831036E-01
(PID.TID 0000.0001) %MON forcing_fv_del2              =   2.2853804546665E-07
(PID.TID 0000.0001) %MON trAdv_CFL_u_max              =   1.5723035033747E-01
(PID.TID 0000.0001) %MON trAdv_CFL_v_max              =   7.7874273625654E-02
(PID.TID 0000.0001) %MON trAdv_CFL_w_max              =   5.0144674740040E-01
(PID.TID 0000.0001) %MON advcfl_uvel_max              =   1.5727754425714E-01
(PID.TID 0000.0001) %MON advcfl_vvel_max              =   7.7874275017432E-02
(PID.TID 0000.0001) %MON advcfl_wvel_max              =   4.9308930161039E-01
(PID.TID 0000.0001) %MON advcfl_W_hf_max              =   5.0144674740040E-01
(PID.TID 0000.0001) %MON pe_b_mean                    =  -1.0189903241732E-03
(PID.TID 0000.0001) %MON ke_max                       =   2.7923070497205E+00
(PID.TID 0000.0001) %MON ke_mean                      =   2.5845371619245E-03
(PID.TID 0000.0001) %MON ke_vol                       =   4.5818637829946E+16
(PID.TID 0000.0001) %MON vort_r_min                   =  -5.1533614155813E-04
(PID.TID 0000.0001) %MON vort_r_max                   =   7.1379578168728E-04
(PID.TID 0000.0001) %MON vort_a_mean                  =   8.2147623467512E-05
(PID.TID 0000.0001) %MON vort_a_sd                    =   1.0148051116419E-05
(PID.TID 0000.0001) %MON vort_p_mean                  =   8.4848845794507E-05
(PID.TID 0000.0001) %MON vort_p_sd                    =   3.4990038694032E-05
(PID.TID 0000.0001) %MON surfExpan_theta_mean         =  -3.5969459473836E-04
(PID.TID 0000.0001) %MON surfExpan_salt_mean          =  -9.4369014708726E-04
(PID.TID 0000.0001) // =======================================================
(PID.TID 0000.0001) // End MONITOR dynamic field statistics
(PID.TID 0000.0001) // =======================================================
(PID.TID 0000.0001) // =======================================================
(PID.TID 0000.0001) // Begin OBCS MONITOR field statistics
(PID.TID 0000.0001) // =======================================================
(PID.TID 0000.0001) %MON obc_E_uVel_max               =   2.6381518613730E-01
(PID.TID 0000.0001) %MON obc_E_uVel_min               =  -2.4884757366814E+00
(PID.TID 0000.0001) %MON obc_E_uVel_mean              =   5.4270100705830E-03
(PID.TID 0000.0001) %MON obc_E_uVel_sd                =   4.4672288542261E-02
(PID.TID 0000.0001) %MON obc_E_uVel_Int               =   1.0481727231557E+08
(PID.TID 0000.0001) %MON obc_W_uVel_max               =   3.2411685487270E-01
(PID.TID 0000.0001) %MON obc_W_uVel_min               =  -6.9437478420401E-01
(PID.TID 0000.0001) %MON obc_W_uVel_mean              =  -4.6933491289449E-03
(PID.TID 0000.0001) %MON obc_W_uVel_sd                =   8.6271457903878E-02
(PID.TID 0000.0001) %MON obc_W_uVel_Int               =  -2.8580770663358E+07
(PID.TID 0000.0001) %MON obc_N_vVel_max               =   3.0364195598930E-01
(PID.TID 0000.0001) %MON obc_N_vVel_min               =  -1.0027236370806E-01
(PID.TID 0000.0001) %MON obc_N_vVel_mean              =   2.0017478259949E-02
(PID.TID 0000.0001) %MON obc_N_vVel_sd                =   4.0687793923955E-02
(PID.TID 0000.0001) %MON obc_N_vVel_Int               =   1.6465280578163E+08
(PID.TID 0000.0001) %MON obc_S_vVel_max               =   4.9109661876015E-02
(PID.TID 0000.0001) %MON obc_S_vVel_min               =  -9.1805101988234E-02
(PID.TID 0000.0001) %MON obc_S_vVel_mean              =  -3.1759919186746E-04
(PID.TID 0000.0001) %MON obc_S_vVel_sd                =   1.1300125352200E-02
(PID.TID 0000.0001) %MON obc_S_vVel_Int               =  -3.5345295288867E+06
(PID.TID 0000.0001) %MON obc_E_theta_max              =   2.5543811072233E+01
(PID.TID 0000.0001) %MON obc_E_theta_min              =   1.4633000000465E+00
(PID.TID 0000.0001) %MON obc_E_theta_mean             =   5.4563359504578E+00
(PID.TID 0000.0001) %MON obc_E_theta_sd               =   5.6195629260831E+00
(PID.TID 0000.0001) %MON obc_W_theta_max              =   1.5385631092602E+01
(PID.TID 0000.0001) %MON obc_W_theta_min              =   1.8895912667048E+00
(PID.TID 0000.0001) %MON obc_W_theta_mean             =   4.2050936033726E+00
(PID.TID 0000.0001) %MON obc_W_theta_sd               =   2.6437103962052E+00
(PID.TID 0000.0001) %MON obc_N_theta_max              =   1.6389891921106E+01
(PID.TID 0000.0001) %MON obc_N_theta_min              =   2.0877736400475E+00
(PID.TID 0000.0001) %MON obc_N_theta_mean             =   5.8650399120427E+00
(PID.TID 0000.0001) %MON obc_N_theta_sd               =   3.8420776388210E+00
(PID.TID 0000.0001) %MON obc_S_theta_max              =   2.3210434811327E+01
(PID.TID 0000.0001) %MON obc_S_theta_min              =   1.8976912325821E+00
(PID.TID 0000.0001) %MON obc_S_theta_mean             =   5.4651249828732E+00
(PID.TID 0000.0001) %MON obc_S_theta_sd               =   4.8644914848508E+00
(PID.TID 0000.0001) %MON obc_E_salt_max               =   3.7284689209729E+01
(PID.TID 0000.0001) %MON obc_E_salt_min               =   3.4844694888241E+01
(PID.TID 0000.0001) %MON obc_E_salt_mean              =   3.5160048906181E+01
(PID.TID 0000.0001) %MON obc_E_salt_sd                =   4.6599341314549E-01
(PID.TID 0000.0001) %MON obc_W_salt_max               =   3.5867262442308E+01
(PID.TID 0000.0001) %MON obc_W_salt_min               =   3.3295074599012E+01
(PID.TID 0000.0001) %MON obc_W_salt_mean              =   3.4957940734965E+01
(PID.TID 0000.0001) %MON obc_W_salt_sd                =   2.4692156819639E-01
(PID.TID 0000.0001) %MON obc_N_salt_max               =   3.5910863155963E+01
(PID.TID 0000.0001) %MON obc_N_salt_min               =   3.4917014875506E+01
(PID.TID 0000.0001) %MON obc_N_salt_mean              =   3.5230513375939E+01
(PID.TID 0000.0001) %MON obc_N_salt_sd                =   3.0056376472094E-01
(PID.TID 0000.0001) %MON obc_S_salt_max               =   3.7318270902396E+01
(PID.TID 0000.0001) %MON obc_S_salt_min               =   3.4884963743474E+01
(PID.TID 0000.0001) %MON obc_S_salt_mean              =   3.5182816979923E+01
(PID.TID 0000.0001) %MON obc_S_salt_sd                =   4.4105822517646E-01
(PID.TID 0000.0001) // =======================================================
(PID.TID 0000.0001) // End OBCS MONITOR field statistics
(PID.TID 0000.0001) // =======================================================
(PID.TID 0000.0001) // =======================================================
(PID.TID 0000.0001) // Begin MONITOR EXF statistics
(PID.TID 0000.0001) // =======================================================
(PID.TID 0000.0001) %MON exf_tsnumber                 =                    11
(PID.TID 0000.0001) %MON exf_time_sec                 =   2.6400000000000E+03
(PID.TID 0000.0001) %MON exf_ustress_max              =   5.0711023539270E-01
(PID.TID 0000.0001) %MON exf_ustress_min              =  -3.2631501161222E-01
(PID.TID 0000.0001) %MON exf_ustress_mean             =   6.9260592148047E-02
(PID.TID 0000.0001) %MON exf_ustress_sd               =   1.3990158751714E-01
(PID.TID 0000.0001) %MON exf_ustress_del2             =   3.0619218871328E-07
(PID.TID 0000.0001) %MON exf_vstress_max              =   5.6950850809691E-01
(PID.TID 0000.0001) %MON exf_vstress_min              =  -1.7654202094067E-01
(PID.TID 0000.0001) %MON exf_vstress_mean             =   9.6765863599141E-02
(PID.TID 0000.0001) %MON exf_vstress_sd               =   1.3434669430687E-01
(PID.TID 0000.0001) %MON exf_vstress_del2             =   2.5400968212187E-07
(PID.TID 0000.0001) %MON exf_hflux_max                =   1.0568653190873E+03
(PID.TID 0000.0001) %MON exf_hflux_min                =  -1.2902779885857E+02
(PID.TID 0000.0001) %MON exf_hflux_mean               =   3.2230679720447E+02
(PID.TID 0000.0001) %MON exf_hflux_sd                 =   2.1024980475134E+02
(PID.TID 0000.0001) %MON exf_hflux_del2               =   8.6076587193553E-02
(PID.TID 0000.0001) %MON exf_sflux_max                =   2.2505197592432E-07
(PID.TID 0000.0001) %MON exf_sflux_min                =  -1.1037399394012E-06
(PID.TID 0000.0001) %MON exf_sflux_mean               =   4.1383722286124E-08
(PID.TID 0000.0001) %MON exf_sflux_sd                 =   1.1018971636374E-07
(PID.TID 0000.0001) %MON exf_sflux_del2               =   2.4319473886245E-11
(PID.TID 0000.0001) %MON exf_uwind_max                =   1.5565510709933E+01
(PID.TID 0000.0001) %MON exf_uwind_min                =  -1.3272616304006E+01
(PID.TID 0000.0001) %MON exf_uwind_mean               =   2.9171225994680E+00
(PID.TID 0000.0001) %MON exf_uwind_sd                 =   6.7774776451027E+00
(PID.TID 0000.0001) %MON exf_uwind_del2               =   1.6373809806129E-03
(PID.TID 0000.0001) %MON exf_vwind_max                =   1.4814605285512E+01
(PID.TID 0000.0001) %MON exf_vwind_min                =  -1.0437404062613E+01
(PID.TID 0000.0001) %MON exf_vwind_mean               =   4.6003454550508E+00
(PID.TID 0000.0001) %MON exf_vwind_sd                 =   5.9422342217995E+00
(PID.TID 0000.0001) %MON exf_vwind_del2               =   1.6804042639481E-03
(PID.TID 0000.0001) %MON exf_wspeed_max               =   1.8303134615222E+01
(PID.TID 0000.0001) %MON exf_wspeed_min               =   3.8623626704480E-02
(PID.TID 0000.0001) %MON exf_wspeed_mean              =   9.9122504927145E+00
(PID.TID 0000.0001) %MON exf_wspeed_sd                =   3.5587109340893E+00
(PID.TID 0000.0001) %MON exf_wspeed_del2              =   2.3461664449981E-03
(PID.TID 0000.0001) %MON exf_atemp_max                =   2.9778866118534E+02
(PID.TID 0000.0001) %MON exf_atemp_min                =   2.7436169203582E+02
(PID.TID 0000.0001) %MON exf_atemp_mean               =   2.8987830075316E+02
(PID.TID 0000.0001) %MON exf_atemp_sd                 =   4.2980756176742E+00
(PID.TID 0000.0001) %MON exf_atemp_del2               =   3.7038271793660E-03
(PID.TID 0000.0001) %MON exf_aqh_max                  =   1.4890824606325E-02
(PID.TID 0000.0001) %MON exf_aqh_min                  =   3.1236160572990E-03
(PID.TID 0000.0001) %MON exf_aqh_mean                 =   9.5843131148859E-03
(PID.TID 0000.0001) %MON exf_aqh_sd                   =   2.2534836328535E-03
(PID.TID 0000.0001) %MON exf_aqh_del2                 =   2.1299849559196E-06
(PID.TID 0000.0001) %MON exf_lwflux_max               =   1.5631598307752E+02
(PID.TID 0000.0001) %MON exf_lwflux_min               =  -2.9093143371415E+00
(PID.TID 0000.0001) %MON exf_lwflux_mean              =   7.2727388803879E+01
(PID.TID 0000.0001) %MON exf_lwflux_sd                =   2.8020300860656E+01
(PID.TID 0000.0001) %MON exf_lwflux_del2              =   1.7285374558711E-02
(PID.TID 0000.0001) %MON exf_evap_max                 =   2.4791177767212E-07
(PID.TID 0000.0001) %MON exf_evap_min                 =  -4.1317193844244E-08
(PID.TID 0000.0001) %MON exf_evap_mean                =   7.9174427155312E-08
(PID.TID 0000.0001) %MON exf_evap_sd                  =   5.5500892638835E-08
(PID.TID 0000.0001) %MON exf_evap_del2                =   2.1399384349831E-11
(PID.TID 0000.0001) %MON exf_precip_max               =   1.1023172114150E-06
(PID.TID 0000.0001) %MON exf_precip_min               =   0.0000000000000E+00
(PID.TID 0000.0001) %MON exf_precip_mean              =   3.6202224672753E-08
(PID.TID 0000.0001) %MON exf_precip_sd                =   8.4365043202570E-08
(PID.TID 0000.0001) %MON exf_precip_del2              =   1.8456076226755E-11
(PID.TID 0000.0001) %MON exf_swflux_max               =   0.0000000000000E+00
(PID.TID 0000.0001) %MON exf_swflux_min               =  -1.2127803773931E+01
(PID.TID 0000.0001) %MON exf_swflux_mean              =  -4.0392569237934E-01
(PID.TID 0000.0001) %MON exf_swflux_sd                =   1.2808343345826E+00
(PID.TID 0000.0001) %MON exf_swflux_del2              =   2.7706003198196E-04
(PID.TID 0000.0001) %MON exf_swdown_max               =   1.3475337526590E+01
(PID.TID 0000.0001) %MON exf_swdown_min               =   0.0000000000000E+00
(PID.TID 0000.0001) %MON exf_swdown_mean              =   4.4880632486594E-01
(PID.TID 0000.0001) %MON exf_swdown_sd                =   1.4231492606474E+00
(PID.TID 0000.0001) %MON exf_swdown_del2              =   3.0784447997996E-04
(PID.TID 0000.0001) %MON exf_lwdown_max               =   4.0288337353421E+02
(PID.TID 0000.0001) %MON exf_lwdown_min               =   2.4868559625650E+02
(PID.TID 0000.0001) %MON exf_lwdown_mean              =   3.4206249567387E+02
(PID.TID 0000.0001) %MON exf_lwdown_sd                =   2.7586406391468E+01
(PID.TID 0000.0001) %MON exf_lwdown_del2              =   7.4685461972214E-02
(PID.TID 0000.0001) %MON exf_apressure_max            =   1.0296937305806E+05
(PID.TID 0000.0001) %MON exf_apressure_min            =   9.9648576692471E+04
(PID.TID 0000.0001) %MON exf_apressure_mean           =   1.0183953525954E+05
(PID.TID 0000.0001) %MON exf_apressure_sd             =   8.3512927285311E+02
(PID.TID 0000.0001) %MON exf_apressure_del2           =   2.2279350390612E+01
(PID.TID 0000.0001) %MON exf_runoff_max               =   4.4374822325994E-08
(PID.TID 0000.0001) %MON exf_runoff_min               =   0.0000000000000E+00
(PID.TID 0000.0001) %MON exf_runoff_mean              =   1.5884801964352E-09
(PID.TID 0000.0001) %MON exf_runoff_sd                =   5.3901974500338E-09
(PID.TID 0000.0001) %MON exf_runoff_del2              =   1.2741192460478E-12
(PID.TID 0000.0001) // =======================================================
(PID.TID 0000.0001) // End MONITOR EXF statistics
(PID.TID 0000.0001) // =======================================================
 cg2d: Sum(rhs),rhsMax =   1.53871652267136E+03  5.50280252865296E-02
(PID.TID 0000.0001)      cg2d_init_res =   1.54041148715538E+00
(PID.TID 0000.0001)      cg2d_iters(min,last) =      -1     313
(PID.TID 0000.0001)      cg2d_last_res =   6.40364041520359E-12
(PID.TID 0000.0001) // =======================================================
(PID.TID 0000.0001) // Begin MONITOR dynamic field statistics
(PID.TID 0000.0001) // =======================================================
(PID.TID 0000.0001) %MON time_tsnumber                =                    12
(PID.TID 0000.0001) %MON time_secondsf                =   2.8800000000000E+03
(PID.TID 0000.0001) %MON dynstat_eta_max              =   7.9876053912571E-01
(PID.TID 0000.0001) %MON dynstat_eta_min              =  -1.1261535495831E+00
(PID.TID 0000.0001) %MON dynstat_eta_mean             =  -5.2327056722707E-02
(PID.TID 0000.0001) %MON dynstat_eta_sd               =   2.6015969088726E-01
(PID.TID 0000.0001) %MON dynstat_eta_del2             =   2.3274229327326E-06
(PID.TID 0000.0001) %MON dynstat_uvel_max             =   8.8844164732438E-01
(PID.TID 0000.0001) %MON dynstat_uvel_min             =  -2.5491025174090E+00
(PID.TID 0000.0001) %MON dynstat_uvel_mean            =   6.2329905343597E-03
(PID.TID 0000.0001) %MON dynstat_uvel_sd              =   5.0651964380171E-02
(PID.TID 0000.0001) %MON dynstat_uvel_del2            =   4.8893317550961E-07
(PID.TID 0000.0001) %MON dynstat_vvel_max             =   1.2776451545732E+00
(PID.TID 0000.0001) %MON dynstat_vvel_min             =  -7.0199260631175E-01
(PID.TID 0000.0001) %MON dynstat_vvel_mean            =   4.5712703900483E-03
(PID.TID 0000.0001) %MON dynstat_vvel_sd              =   5.0924224977146E-02
(PID.TID 0000.0001) %MON dynstat_vvel_del2            =   5.1953147732029E-07
(PID.TID 0000.0001) %MON dynstat_wvel_max             =   3.5370831553213E-02
(PID.TID 0000.0001) %MON dynstat_wvel_min             =  -3.1943892007182E-02
(PID.TID 0000.0001) %MON dynstat_wvel_mean            =  -1.6100588754988E-05
(PID.TID 0000.0001) %MON dynstat_wvel_sd              =   6.0684470837748E-04
(PID.TID 0000.0001) %MON dynstat_wvel_del2            =   7.2393290098286E-08
(PID.TID 0000.0001) %MON dynstat_theta_max            =   2.6136575134030E+01
(PID.TID 0000.0001) %MON dynstat_theta_min            =   1.4688653894535E+00
(PID.TID 0000.0001) %MON dynstat_theta_mean           =   5.5098625208668E+00
(PID.TID 0000.0001) %MON dynstat_theta_sd             =   4.7732805358183E+00
(PID.TID 0000.0001) %MON dynstat_theta_del2           =   4.0312172351706E-06
(PID.TID 0000.0001) %MON dynstat_salt_max             =   3.9152111544441E+01
(PID.TID 0000.0001) %MON dynstat_salt_min             =   3.3091291908403E+01
(PID.TID 0000.0001) %MON dynstat_salt_mean            =   3.5173366623620E+01
(PID.TID 0000.0001) %MON dynstat_salt_sd              =   3.7891822852264E-01
(PID.TID 0000.0001) %MON dynstat_salt_del2            =   5.2737844452459E-07
(PID.TID 0000.0001) %MON dynstat_sst_max              =   2.6126384130142E+01
(PID.TID 0000.0001) %MON dynstat_sst_min              =   3.9080036471859E+00
(PID.TID 0000.0001) %MON dynstat_sst_mean             =   1.9633973186305E+01
(PID.TID 0000.0001) %MON dynstat_sst_sd               =   3.6357685118026E+00
(PID.TID 0000.0001) %MON dynstat_sst_del2             =   1.9260339350175E-05
(PID.TID 0000.0001) %MON dynstat_sss_max              =   3.7335539830480E+01
(PID.TID 0000.0001) %MON dynstat_sss_min              =   3.3091291908403E+01
(PID.TID 0000.0001) %MON dynstat_sss_mean             =   3.5868562254643E+01
(PID.TID 0000.0001) %MON dynstat_sss_sd               =   4.8743986902879E-01
(PID.TID 0000.0001) %MON dynstat_sss_del2             =   4.9175486375352E-06
(PID.TID 0000.0001) %MON forcing_qnet_max             =   1.0726984127869E+03
(PID.TID 0000.0001) %MON forcing_qnet_min             =  -1.8406359009197E+02
(PID.TID 0000.0001) %MON forcing_qnet_mean            =   3.2662195881078E+02
(PID.TID 0000.0001) %MON forcing_qnet_sd              =   2.1608917985543E+02
(PID.TID 0000.0001) %MON forcing_qnet_del2            =   1.1807855705845E-03
(PID.TID 0000.0001) %MON forcing_qsw_max              =   0.0000000000000E+00
(PID.TID 0000.0001) %MON forcing_qsw_min              =  -1.2127803773931E+01
(PID.TID 0000.0001) %MON forcing_qsw_mean             =  -4.0392569237934E-01
(PID.TID 0000.0001) %MON forcing_qsw_sd               =   1.2808343345826E+00
(PID.TID 0000.0001) %MON forcing_qsw_del2             =   4.1248008755672E-06
(PID.TID 0000.0001) %MON forcing_empmr_max            =   2.2505197592432E-04
(PID.TID 0000.0001) %MON forcing_empmr_min            =  -1.1037399394012E-03
(PID.TID 0000.0001) %MON forcing_empmr_mean           =   4.1383722286124E-05
(PID.TID 0000.0001) %MON forcing_empmr_sd             =   1.1018971636374E-04
(PID.TID 0000.0001) %MON forcing_empmr_del2           =   9.5535642343333E-10
(PID.TID 0000.0001) %MON forcing_fu_max               =   5.0706752489231E-01
(PID.TID 0000.0001) %MON forcing_fu_min               =  -3.2628626200794E-01
(PID.TID 0000.0001) %MON forcing_fu_mean              =   6.9365439135587E-02
(PID.TID 0000.0001) %MON forcing_fu_sd                =   1.3991146062726E-01
(PID.TID 0000.0001) %MON forcing_fu_del2              =   2.8172496929215E-07
(PID.TID 0000.0001) %MON forcing_fv_max               =   5.6944170957331E-01
(PID.TID 0000.0001) %MON forcing_fv_min               =  -1.7652406300914E-01
(PID.TID 0000.0001) %MON forcing_fv_mean              =   9.6791454046888E-02
(PID.TID 0000.0001) %MON forcing_fv_sd                =   1.3435576817798E-01
(PID.TID 0000.0001) %MON forcing_fv_del2              =   2.2872871820865E-07
(PID.TID 0000.0001) %MON trAdv_CFL_u_max              =   1.6106095629160E-01
(PID.TID 0000.0001) %MON trAdv_CFL_v_max              =   7.7515705054216E-02
(PID.TID 0000.0001) %MON trAdv_CFL_w_max              =   5.1067063159889E-01
(PID.TID 0000.0001) %MON advcfl_uvel_max              =   1.6110929999761E-01
(PID.TID 0000.0001) %MON advcfl_vvel_max              =   7.7515706439585E-02
(PID.TID 0000.0001) %MON advcfl_wvel_max              =   5.0215945440558E-01
(PID.TID 0000.0001) %MON advcfl_W_hf_max              =   5.1067063159889E-01
(PID.TID 0000.0001) %MON pe_b_mean                    =  -1.1780141880198E-03
(PID.TID 0000.0001) %MON ke_max                       =   2.9352214528842E+00
(PID.TID 0000.0001) %MON ke_mean                      =   2.5902499882970E-03
(PID.TID 0000.0001) %MON ke_vol                       =   4.5818637829946E+16
(PID.TID 0000.0001) %MON vort_r_min                   =  -5.1519872192020E-04
(PID.TID 0000.0001) %MON vort_r_max                   =   7.3976142246618E-04
(PID.TID 0000.0001) %MON vort_a_mean                  =   8.2147622646398E-05
(PID.TID 0000.0001) %MON vort_a_sd                    =   1.0151471566801E-05
(PID.TID 0000.0001) %MON vort_p_mean                  =   8.4848844946394E-05
(PID.TID 0000.0001) %MON vort_p_sd                    =   3.4993644989887E-05
(PID.TID 0000.0001) %MON surfExpan_theta_mean         =  -4.0119556239605E-04
(PID.TID 0000.0001) %MON surfExpan_salt_mean          =  -1.0085653490854E-03
(PID.TID 0000.0001) // =======================================================
(PID.TID 0000.0001) // End MONITOR dynamic field statistics
(PID.TID 0000.0001) // =======================================================
(PID.TID 0000.0001) // =======================================================
(PID.TID 0000.0001) // Begin OBCS MONITOR field statistics
(PID.TID 0000.0001) // =======================================================
(PID.TID 0000.0001) %MON obc_E_uVel_max               =   2.6388385581095E-01
(PID.TID 0000.0001) %MON obc_E_uVel_min               =  -2.5491025174090E+00
(PID.TID 0000.0001) %MON obc_E_uVel_mean              =   5.8969593667600E-03
(PID.TID 0000.0001) %MON obc_E_uVel_sd                =   4.4782434596734E-02
(PID.TID 0000.0001) %MON obc_E_uVel_Int               =   1.1389387300568E+08
(PID.TID 0000.0001) %MON obc_W_uVel_max               =   3.2443649964790E-01
(PID.TID 0000.0001) %MON obc_W_uVel_min               =  -6.9420004969576E-01
(PID.TID 0000.0001) %MON obc_W_uVel_mean              =  -4.4753136283766E-03
(PID.TID 0000.0001) %MON obc_W_uVel_sd                =   8.6170095158557E-02
(PID.TID 0000.0001) %MON obc_W_uVel_Int               =  -2.7253014626676E+07
(PID.TID 0000.0001) %MON obc_N_vVel_max               =   3.0371542197164E-01
(PID.TID 0000.0001) %MON obc_N_vVel_min               =  -1.0002605365832E-01
(PID.TID 0000.0001) %MON obc_N_vVel_mean              =   2.0089699929664E-02
(PID.TID 0000.0001) %MON obc_N_vVel_sd                =   4.0741989716826E-02
(PID.TID 0000.0001) %MON obc_N_vVel_Int               =   1.6524686165632E+08
(PID.TID 0000.0001) %MON obc_S_vVel_max               =   4.8165761761044E-02
(PID.TID 0000.0001) %MON obc_S_vVel_min               =  -9.2252455656898E-02
(PID.TID 0000.0001) %MON obc_S_vVel_mean              =  -1.3764762429411E-03
(PID.TID 0000.0001) %MON obc_S_vVel_sd                =   1.1269631639738E-02
(PID.TID 0000.0001) %MON obc_S_vVel_Int               =  -1.5318665950878E+07
(PID.TID 0000.0001) %MON obc_E_theta_max              =   2.5543708323453E+01
(PID.TID 0000.0001) %MON obc_E_theta_min              =   1.4633003963337E+00
(PID.TID 0000.0001) %MON obc_E_theta_mean             =   5.4563356124020E+00
(PID.TID 0000.0001) %MON obc_E_theta_sd               =   5.6195593127052E+00
(PID.TID 0000.0001) %MON obc_W_theta_max              =   1.5385511178990E+01
(PID.TID 0000.0001) %MON obc_W_theta_min              =   1.8895913157701E+00
(PID.TID 0000.0001) %MON obc_W_theta_mean             =   4.2050813828537E+00
(PID.TID 0000.0001) %MON obc_W_theta_sd               =   2.6436901546379E+00
(PID.TID 0000.0001) %MON obc_N_theta_max              =   1.6389803818919E+01
(PID.TID 0000.0001) %MON obc_N_theta_min              =   2.0877703648736E+00
(PID.TID 0000.0001) %MON obc_N_theta_mean             =   5.8650361084508E+00
(PID.TID 0000.0001) %MON obc_N_theta_sd               =   3.8420717475664E+00
(PID.TID 0000.0001) %MON obc_S_theta_max              =   2.3210350874236E+01
(PID.TID 0000.0001) %MON obc_S_theta_min              =   1.8976912218442E+00
(PID.TID 0000.0001) %MON obc_S_theta_mean             =   5.4651233674328E+00
(PID.TID 0000.0001) %MON obc_S_theta_sd               =   4.8644870720084E+00
(PID.TID 0000.0001) %MON obc_E_salt_max               =   3.7284677140212E+01
(PID.TID 0000.0001) %MON obc_E_salt_min               =   3.4844694940461E+01
(PID.TID 0000.0001) %MON obc_E_salt_mean              =   3.5160048976039E+01
(PID.TID 0000.0001) %MON obc_E_salt_sd                =   4.6599344275853E-01
(PID.TID 0000.0001) %MON obc_W_salt_max               =   3.5867262945364E+01
(PID.TID 0000.0001) %MON obc_W_salt_min               =   3.3295080101645E+01
(PID.TID 0000.0001) %MON obc_W_salt_mean              =   3.4957940209662E+01
(PID.TID 0000.0001) %MON obc_W_salt_sd                =   2.4692083406219E-01
(PID.TID 0000.0001) %MON obc_N_salt_max               =   3.5910862747600E+01
(PID.TID 0000.0001) %MON obc_N_salt_min               =   3.4917014861580E+01
(PID.TID 0000.0001) %MON obc_N_salt_mean              =   3.5230513249725E+01
(PID.TID 0000.0001) %MON obc_N_salt_sd                =   3.0056384362386E-01
(PID.TID 0000.0001) %MON obc_S_salt_max               =   3.7318264018012E+01
(PID.TID 0000.0001) %MON obc_S_salt_min               =   3.4884963739644E+01
(PID.TID 0000.0001) %MON obc_S_salt_mean              =   3.5182816661958E+01
(PID.TID 0000.0001) %MON obc_S_salt_sd                =   4.4105718829997E-01
(PID.TID 0000.0001) // =======================================================
(PID.TID 0000.0001) // End OBCS MONITOR field statistics
(PID.TID 0000.0001) // =======================================================
(PID.TID 0000.0001) // =======================================================
(PID.TID 0000.0001) // Begin MONITOR EXF statistics
(PID.TID 0000.0001) // =======================================================
(PID.TID 0000.0001) %MON exf_tsnumber                 =                    12
(PID.TID 0000.0001) %MON exf_time_sec                 =   2.8800000000000E+03
(PID.TID 0000.0001) %MON exf_ustress_max              =   5.0504614358817E-01
(PID.TID 0000.0001) %MON exf_ustress_min              =  -3.2897562996375E-01
(PID.TID 0000.0001) %MON exf_ustress_mean             =   6.8981209302638E-02
(PID.TID 0000.0001) %MON exf_ustress_sd               =   1.3984299565543E-01
(PID.TID 0000.0001) %MON exf_ustress_del2             =   3.0962697992728E-07
(PID.TID 0000.0001) %MON exf_vstress_max              =   5.6748387306469E-01
(PID.TID 0000.0001) %MON exf_vstress_min              =  -1.7611178800838E-01
(PID.TID 0000.0001) %MON exf_vstress_mean             =   9.6565698725991E-02
(PID.TID 0000.0001) %MON exf_vstress_sd               =   1.3421657579102E-01
(PID.TID 0000.0001) %MON exf_vstress_del2             =   2.5514247043204E-07
(PID.TID 0000.0001) %MON exf_hflux_max                =   1.0556619486780E+03
(PID.TID 0000.0001) %MON exf_hflux_min                =  -1.2823072174059E+02
(PID.TID 0000.0001) %MON exf_hflux_mean               =   3.2211176777489E+02
(PID.TID 0000.0001) %MON exf_hflux_sd                 =   2.1000081569914E+02
(PID.TID 0000.0001) %MON exf_hflux_del2               =   8.6001041869474E-02
(PID.TID 0000.0001) %MON exf_sflux_max                =   2.2465563639784E-07
(PID.TID 0000.0001) %MON exf_sflux_min                =  -1.1170192251493E-06
(PID.TID 0000.0001) %MON exf_sflux_mean               =   4.1223760974716E-08
(PID.TID 0000.0001) %MON exf_sflux_sd                 =   1.1083047832856E-07
(PID.TID 0000.0001) %MON exf_sflux_del2               =   2.4416157401239E-11
(PID.TID 0000.0001) %MON exf_uwind_max                =   1.5558781193621E+01
(PID.TID 0000.0001) %MON exf_uwind_min                =  -1.3315308826754E+01
(PID.TID 0000.0001) %MON exf_uwind_mean               =   2.9085367070840E+00
(PID.TID 0000.0001) %MON exf_uwind_sd                 =   6.7821609784462E+00
(PID.TID 0000.0001) %MON exf_uwind_del2               =   1.6375607217143E-03
(PID.TID 0000.0001) %MON exf_vwind_max                =   1.4796014719653E+01
(PID.TID 0000.0001) %MON exf_vwind_min                =  -1.0420288308853E+01
(PID.TID 0000.0001) %MON exf_vwind_mean               =   4.5941525415401E+00
(PID.TID 0000.0001) %MON exf_vwind_sd                 =   5.9382267832360E+00
(PID.TID 0000.0001) %MON exf_vwind_del2               =   1.6791262146071E-03
(PID.TID 0000.0001) %MON exf_wspeed_max               =   1.8289224412120E+01
(PID.TID 0000.0001) %MON exf_wspeed_min               =   5.4978225066309E-02
(PID.TID 0000.0001) %MON exf_wspeed_mean              =   9.9083882109571E+00
(PID.TID 0000.0001) %MON exf_wspeed_sd                =   3.5566713763096E+00
(PID.TID 0000.0001) %MON exf_wspeed_del2              =   2.3453772599796E-03
(PID.TID 0000.0001) %MON exf_atemp_max                =   2.9778820715675E+02
(PID.TID 0000.0001) %MON exf_atemp_min                =   2.7436618576490E+02
(PID.TID 0000.0001) %MON exf_atemp_mean               =   2.8987837426692E+02
(PID.TID 0000.0001) %MON exf_atemp_sd                 =   4.2948825903997E+00
(PID.TID 0000.0001) %MON exf_atemp_del2               =   3.7038170441660E-03
(PID.TID 0000.0001) %MON exf_aqh_max                  =   1.4912429268163E-02
(PID.TID 0000.0001) %MON exf_aqh_min                  =   3.1311631456505E-03
(PID.TID 0000.0001) %MON exf_aqh_mean                 =   9.5839299328468E-03
(PID.TID 0000.0001) %MON exf_aqh_sd                   =   2.2514364613654E-03
(PID.TID 0000.0001) %MON exf_aqh_del2                 =   2.1298661166015E-06
(PID.TID 0000.0001) %MON exf_lwflux_max               =   1.5610562484682E+02
(PID.TID 0000.0001) %MON exf_lwflux_min               =  -3.5699878867481E+00
(PID.TID 0000.0001) %MON exf_lwflux_mean              =   7.2722058292349E+01
(PID.TID 0000.0001) %MON exf_lwflux_sd                =   2.8058223289441E+01
(PID.TID 0000.0001) %MON exf_lwflux_del2              =   1.7286087960007E-02
(PID.TID 0000.0001) %MON exf_evap_max                 =   2.4764495504759E-07
(PID.TID 0000.0001) %MON exf_evap_min                 =  -4.1180409004013E-08
(PID.TID 0000.0001) %MON exf_evap_mean                =   7.9109324069445E-08
(PID.TID 0000.0001) %MON exf_evap_sd                  =   5.5424813579271E-08
(PID.TID 0000.0001) %MON exf_evap_del2                =   2.1377114079905E-11
(PID.TID 0000.0001) %MON exf_precip_max               =   1.1154275209783E-06
(PID.TID 0000.0001) %MON exf_precip_min               =   0.0000000000000E+00
(PID.TID 0000.0001) %MON exf_precip_mean              =   3.6297082898294E-08
(PID.TID 0000.0001) %MON exf_precip_sd                =   8.5110327413792E-08
(PID.TID 0000.0001) %MON exf_precip_del2              =   1.8596784631214E-11
(PID.TID 0000.0001) %MON exf_swflux_max               =   0.0000000000000E+00
(PID.TID 0000.0001) %MON exf_swflux_min               =  -1.1073212141415E+01
(PID.TID 0000.0001) %MON exf_swflux_mean              =  -3.6880171912897E-01
(PID.TID 0000.0001) %MON exf_swflux_sd                =   1.1694574359233E+00
(PID.TID 0000.0001) %MON exf_swflux_del2              =   2.5296785528788E-04
(PID.TID 0000.0001) %MON exf_swdown_max               =   1.2303569046017E+01
(PID.TID 0000.0001) %MON exf_swdown_min               =   0.0000000000000E+00
(PID.TID 0000.0001) %MON exf_swdown_mean              =   4.0977968792107E-01
(PID.TID 0000.0001) %MON exf_swdown_sd                =   1.2993971510259E+00
(PID.TID 0000.0001) %MON exf_swdown_del2              =   2.8107539476431E-04
(PID.TID 0000.0001) %MON exf_lwdown_max               =   4.0298536726857E+02
(PID.TID 0000.0001) %MON exf_lwdown_min               =   2.4862566499082E+02
(PID.TID 0000.0001) %MON exf_lwdown_mean              =   3.4206347375493E+02
(PID.TID 0000.0001) %MON exf_lwdown_sd                =   2.7608944302982E+01
(PID.TID 0000.0001) %MON exf_lwdown_del2              =   7.4686498800176E-02
(PID.TID 0000.0001) %MON exf_apressure_max            =   1.0296684781986E+05
(PID.TID 0000.0001) %MON exf_apressure_min            =   9.9647415160282E+04
(PID.TID 0000.0001) %MON exf_apressure_mean           =   1.0183790155191E+05
(PID.TID 0000.0001) %MON exf_apressure_sd             =   8.3459017259172E+02
(PID.TID 0000.0001) %MON exf_apressure_del2           =   2.2279002424199E+01
(PID.TID 0000.0001) %MON exf_runoff_max               =   4.4374822325994E-08
(PID.TID 0000.0001) %MON exf_runoff_min               =   0.0000000000000E+00
(PID.TID 0000.0001) %MON exf_runoff_mean              =   1.5884801964352E-09
(PID.TID 0000.0001) %MON exf_runoff_sd                =   5.3901974500338E-09
(PID.TID 0000.0001) %MON exf_runoff_del2              =   1.2741192460478E-12
(PID.TID 0000.0001) // =======================================================
(PID.TID 0000.0001) // End MONITOR EXF statistics
(PID.TID 0000.0001) // =======================================================
 cg2d: Sum(rhs),rhsMax =   1.75193917029415E+03  6.27795964379727E-02
(PID.TID 0000.0001)      cg2d_init_res =   1.45857924291596E+00
(PID.TID 0000.0001)      cg2d_iters(min,last) =      -1     312
(PID.TID 0000.0001)      cg2d_last_res =   6.69485668879783E-12
(PID.TID 0000.0001) // =======================================================
(PID.TID 0000.0001) // Begin MONITOR dynamic field statistics
(PID.TID 0000.0001) // =======================================================
(PID.TID 0000.0001) %MON time_tsnumber                =                    13
(PID.TID 0000.0001) %MON time_secondsf                =   3.1200000000000E+03
(PID.TID 0000.0001) %MON dynstat_eta_max              =   7.4329078560491E-01
(PID.TID 0000.0001) %MON dynstat_eta_min              =  -1.2051852478672E+00
(PID.TID 0000.0001) %MON dynstat_eta_mean             =  -5.9578108760125E-02
(PID.TID 0000.0001) %MON dynstat_eta_sd               =   2.6994876549751E-01
(PID.TID 0000.0001) %MON dynstat_eta_del2             =   2.3540375558142E-06
(PID.TID 0000.0001) %MON dynstat_uvel_max             =   8.8687750001870E-01
(PID.TID 0000.0001) %MON dynstat_uvel_min             =  -2.6092093048848E+00
(PID.TID 0000.0001) %MON dynstat_uvel_mean            =   6.4402627588647E-03
(PID.TID 0000.0001) %MON dynstat_uvel_sd              =   5.0730232125550E-02
(PID.TID 0000.0001) %MON dynstat_uvel_del2            =   4.9647660416067E-07
(PID.TID 0000.0001) %MON dynstat_vvel_max             =   1.2718760351526E+00
(PID.TID 0000.0001) %MON dynstat_vvel_min             =  -7.0230711127566E-01
(PID.TID 0000.0001) %MON dynstat_vvel_mean            =   4.5926768671383E-03
(PID.TID 0000.0001) %MON dynstat_vvel_sd              =   5.0922611959936E-02
(PID.TID 0000.0001) %MON dynstat_vvel_del2            =   5.2712341299218E-07
(PID.TID 0000.0001) %MON dynstat_wvel_max             =   3.6716660925293E-02
(PID.TID 0000.0001) %MON dynstat_wvel_min             =  -3.2467281115673E-02
(PID.TID 0000.0001) %MON dynstat_wvel_mean            =  -1.7189631920668E-05
(PID.TID 0000.0001) %MON dynstat_wvel_sd              =   6.0844242380024E-04
(PID.TID 0000.0001) %MON dynstat_wvel_del2            =   7.1079215442738E-08
(PID.TID 0000.0001) %MON dynstat_theta_max            =   2.6137624642933E+01
(PID.TID 0000.0001) %MON dynstat_theta_min            =   1.4688655989142E+00
(PID.TID 0000.0001) %MON dynstat_theta_mean           =   5.5098732541194E+00
(PID.TID 0000.0001) %MON dynstat_theta_sd             =   4.7732771854446E+00
(PID.TID 0000.0001) %MON dynstat_theta_del2           =   4.0328648111971E-06
(PID.TID 0000.0001) %MON dynstat_salt_max             =   3.9147874894994E+01
(PID.TID 0000.0001) %MON dynstat_salt_min             =   3.3091434805134E+01
(PID.TID 0000.0001) %MON dynstat_salt_mean            =   3.5173366992265E+01
(PID.TID 0000.0001) %MON dynstat_salt_sd              =   3.7891962813296E-01
(PID.TID 0000.0001) %MON dynstat_salt_del2            =   5.2976036872260E-07
(PID.TID 0000.0001) %MON dynstat_sst_max              =   2.6127111702644E+01
(PID.TID 0000.0001) %MON dynstat_sst_min              =   3.8920735008998E+00
(PID.TID 0000.0001) %MON dynstat_sst_mean             =   1.9633219168184E+01
(PID.TID 0000.0001) %MON dynstat_sst_sd               =   3.6356577836712E+00
(PID.TID 0000.0001) %MON dynstat_sst_del2             =   1.9307607283861E-05
(PID.TID 0000.0001) %MON dynstat_sss_max              =   3.7335599999075E+01
(PID.TID 0000.0001) %MON dynstat_sss_min              =   3.3091434805134E+01
(PID.TID 0000.0001) %MON dynstat_sss_mean             =   3.5868593089903E+01
(PID.TID 0000.0001) %MON dynstat_sss_sd               =   4.8745200440125E-01
(PID.TID 0000.0001) %MON dynstat_sss_del2             =   4.9116564686940E-06
(PID.TID 0000.0001) %MON forcing_qnet_max             =   1.0714535360559E+03
(PID.TID 0000.0001) %MON forcing_qnet_min             =  -1.8593693300569E+02
(PID.TID 0000.0001) %MON forcing_qnet_mean            =   3.2641442852324E+02
(PID.TID 0000.0001) %MON forcing_qnet_sd              =   2.1585125328450E+02
(PID.TID 0000.0001) %MON forcing_qnet_del2            =   1.1813314926684E-03
(PID.TID 0000.0001) %MON forcing_qsw_max              =   0.0000000000000E+00
(PID.TID 0000.0001) %MON forcing_qsw_min              =  -1.1073212141415E+01
(PID.TID 0000.0001) %MON forcing_qsw_mean             =  -3.6880171912897E-01
(PID.TID 0000.0001) %MON forcing_qsw_sd               =   1.1694574359233E+00
(PID.TID 0000.0001) %MON forcing_qsw_del2             =   3.7661225385614E-06
(PID.TID 0000.0001) %MON forcing_empmr_max            =   2.2465563639784E-04
(PID.TID 0000.0001) %MON forcing_empmr_min            =  -1.1170192251493E-03
(PID.TID 0000.0001) %MON forcing_empmr_mean           =   4.1223760974716E-05
(PID.TID 0000.0001) %MON forcing_empmr_sd             =   1.1083047832856E-04
(PID.TID 0000.0001) %MON forcing_empmr_del2           =   9.7055145982519E-10
(PID.TID 0000.0001) %MON forcing_fu_max               =   5.0500271807939E-01
(PID.TID 0000.0001) %MON forcing_fu_min               =  -3.2894151577338E-01
(PID.TID 0000.0001) %MON forcing_fu_mean              =   6.9085577368636E-02
(PID.TID 0000.0001) %MON forcing_fu_sd                =   1.3985263194508E-01
(PID.TID 0000.0001) %MON forcing_fu_del2              =   2.8435848858396E-07
(PID.TID 0000.0001) %MON forcing_fv_max               =   5.6743064948604E-01
(PID.TID 0000.0001) %MON forcing_fv_min               =  -1.7609441049096E-01
(PID.TID 0000.0001) %MON forcing_fv_mean              =   9.6591009393203E-02
(PID.TID 0000.0001) %MON forcing_fv_sd                =   1.3422562970029E-01
(PID.TID 0000.0001) %MON forcing_fv_del2              =   2.2888155695358E-07
(PID.TID 0000.0001) %MON trAdv_CFL_u_max              =   1.6485870730567E-01
(PID.TID 0000.0001) %MON trAdv_CFL_v_max              =   7.7165688955342E-02
(PID.TID 0000.0001) %MON trAdv_CFL_w_max              =   5.1708412000719E-01
(PID.TID 0000.0001) %MON advcfl_uvel_max              =   1.6490819093636E-01
(PID.TID 0000.0001) %MON advcfl_vvel_max              =   7.7165689562203E-02
(PID.TID 0000.0001) %MON advcfl_wvel_max              =   5.0846605134040E-01
(PID.TID 0000.0001) %MON advcfl_W_hf_max              =   5.1708412000719E-01
(PID.TID 0000.0001) %MON pe_b_mean                    =  -1.3473050312450E-03
(PID.TID 0000.0001) %MON ke_max                       =   3.0828647935728E+00
(PID.TID 0000.0001) %MON ke_mean                      =   2.5955085149035E-03
(PID.TID 0000.0001) %MON ke_vol                       =   4.5818637829946E+16
(PID.TID 0000.0001) %MON vort_r_min                   =  -5.1458702433778E-04
(PID.TID 0000.0001) %MON vort_r_max                   =   7.5990219528468E-04
(PID.TID 0000.0001) %MON vort_a_mean                  =   8.2147621819507E-05
(PID.TID 0000.0001) %MON vort_a_sd                    =   1.0154789838048E-05
(PID.TID 0000.0001) %MON vort_p_mean                  =   8.4848844092313E-05
(PID.TID 0000.0001) %MON vort_p_sd                    =   3.4997559235931E-05
(PID.TID 0000.0001) %MON surfExpan_theta_mean         =  -4.4096682611506E-04
(PID.TID 0000.0001) %MON surfExpan_salt_mean          =  -1.0718987777634E-03
(PID.TID 0000.0001) // =======================================================
(PID.TID 0000.0001) // End MONITOR dynamic field statistics
(PID.TID 0000.0001) // =======================================================
(PID.TID 0000.0001) // =======================================================
(PID.TID 0000.0001) // Begin OBCS MONITOR field statistics
(PID.TID 0000.0001) // =======================================================
(PID.TID 0000.0001) %MON obc_E_uVel_max               =   2.6394455358251E-01
(PID.TID 0000.0001) %MON obc_E_uVel_min               =  -2.6092093048848E+00
(PID.TID 0000.0001) %MON obc_E_uVel_mean              =   6.3589287296538E-03
(PID.TID 0000.0001) %MON obc_E_uVel_sd                =   4.4895724959504E-02
(PID.TID 0000.0001) %MON obc_E_uVel_Int               =   1.2281634926464E+08
(PID.TID 0000.0001) %MON obc_W_uVel_max               =   3.2477727580144E-01
(PID.TID 0000.0001) %MON obc_W_uVel_min               =  -6.9401459732993E-01
(PID.TID 0000.0001) %MON obc_W_uVel_mean              =  -4.2532870981992E-03
(PID.TID 0000.0001) %MON obc_W_uVel_sd                =   8.6073964719732E-02
(PID.TID 0000.0001) %MON obc_W_uVel_Int               =  -2.5900954686995E+07
(PID.TID 0000.0001) %MON obc_N_vVel_max               =   3.0373765303130E-01
(PID.TID 0000.0001) %MON obc_N_vVel_min               =  -9.9801884482993E-02
(PID.TID 0000.0001) %MON obc_N_vVel_mean              =   2.0139768711300E-02
(PID.TID 0000.0001) %MON obc_N_vVel_sd                =   4.0786264655498E-02
(PID.TID 0000.0001) %MON obc_N_vVel_Int               =   1.6565870001434E+08
(PID.TID 0000.0001) %MON obc_S_vVel_max               =   4.7213572731788E-02
(PID.TID 0000.0001) %MON obc_S_vVel_min               =  -9.2693452423442E-02
(PID.TID 0000.0001) %MON obc_S_vVel_mean              =  -2.4325807701997E-03
(PID.TID 0000.0001) %MON obc_S_vVel_sd                =   1.1238385558838E-02
(PID.TID 0000.0001) %MON obc_S_vVel_Int               =  -2.7071947233609E+07
(PID.TID 0000.0001) %MON obc_E_theta_max              =   2.5543605574674E+01
(PID.TID 0000.0001) %MON obc_E_theta_min              =   1.4633007926210E+00
(PID.TID 0000.0001) %MON obc_E_theta_mean             =   5.4563352743462E+00
(PID.TID 0000.0001) %MON obc_E_theta_sd               =   5.6195556993690E+00
(PID.TID 0000.0001) %MON obc_W_theta_max              =   1.5385391265378E+01
(PID.TID 0000.0001) %MON obc_W_theta_min              =   1.8895913648355E+00
(PID.TID 0000.0001) %MON obc_W_theta_mean             =   4.2050691623348E+00
(PID.TID 0000.0001) %MON obc_W_theta_sd               =   2.6436699135534E+00
(PID.TID 0000.0001) %MON obc_N_theta_max              =   1.6389715716732E+01
(PID.TID 0000.0001) %MON obc_N_theta_min              =   2.0877670896997E+00
(PID.TID 0000.0001) %MON obc_N_theta_mean             =   5.8650323048588E+00
(PID.TID 0000.0001) %MON obc_N_theta_sd               =   3.8420658563847E+00
(PID.TID 0000.0001) %MON obc_S_theta_max              =   2.3210266937144E+01
(PID.TID 0000.0001) %MON obc_S_theta_min              =   1.8976912111064E+00
(PID.TID 0000.0001) %MON obc_S_theta_mean             =   5.4651217519925E+00
(PID.TID 0000.0001) %MON obc_S_theta_sd               =   4.8644826591902E+00
(PID.TID 0000.0001) %MON obc_E_salt_max               =   3.7284665070694E+01
(PID.TID 0000.0001) %MON obc_E_salt_min               =   3.4844694992682E+01
(PID.TID 0000.0001) %MON obc_E_salt_mean              =   3.5160049045897E+01
(PID.TID 0000.0001) %MON obc_E_salt_sd                =   4.6599347237605E-01
(PID.TID 0000.0001) %MON obc_W_salt_max               =   3.5867263448421E+01
(PID.TID 0000.0001) %MON obc_W_salt_min               =   3.3295085604278E+01
(PID.TID 0000.0001) %MON obc_W_salt_mean              =   3.4957939684359E+01
(PID.TID 0000.0001) %MON obc_W_salt_sd                =   2.4692010001187E-01
(PID.TID 0000.0001) %MON obc_N_salt_max               =   3.5910862339236E+01
(PID.TID 0000.0001) %MON obc_N_salt_min               =   3.4917014847655E+01
(PID.TID 0000.0001) %MON obc_N_salt_mean              =   3.5230513123510E+01
(PID.TID 0000.0001) %MON obc_N_salt_sd                =   3.0056392254410E-01
(PID.TID 0000.0001) %MON obc_S_salt_max               =   3.7318257133628E+01
(PID.TID 0000.0001) %MON obc_S_salt_min               =   3.4884963735815E+01
(PID.TID 0000.0001) %MON obc_S_salt_mean              =   3.5182816343994E+01
(PID.TID 0000.0001) %MON obc_S_salt_sd                =   4.4105615143644E-01
(PID.TID 0000.0001) // =======================================================
(PID.TID 0000.0001) // End OBCS MONITOR field statistics
(PID.TID 0000.0001) // =======================================================
(PID.TID 0000.0001) // =======================================================
(PID.TID 0000.0001) // Begin MONITOR EXF statistics
(PID.TID 0000.0001) // =======================================================
(PID.TID 0000.0001) %MON exf_tsnumber                 =                    13
(PID.TID 0000.0001) %MON exf_time_sec                 =   3.1200000000000E+03
(PID.TID 0000.0001) %MON exf_ustress_max              =   5.0302895641274E-01
(PID.TID 0000.0001) %MON exf_ustress_min              =  -3.3168254385707E-01
(PID.TID 0000.0001) %MON exf_ustress_mean             =   6.8706882601994E-02
(PID.TID 0000.0001) %MON exf_ustress_sd               =   1.3980340099834E-01
(PID.TID 0000.0001) %MON exf_ustress_del2             =   3.1302666536890E-07
(PID.TID 0000.0001) %MON exf_vstress_max              =   5.6548625984771E-01
(PID.TID 0000.0001) %MON exf_vstress_min              =  -1.7569603178766E-01
(PID.TID 0000.0001) %MON exf_vstress_mean             =   9.6371886148390E-02
(PID.TID 0000.0001) %MON exf_vstress_sd               =   1.3410379663519E-01
(PID.TID 0000.0001) %MON exf_vstress_del2             =   2.5592670015590E-07
(PID.TID 0000.0001) %MON exf_hflux_max                =   1.0544900446989E+03
(PID.TID 0000.0001) %MON exf_hflux_min                =  -1.2743440805407E+02
(PID.TID 0000.0001) %MON exf_hflux_mean               =   3.2192810998171E+02
(PID.TID 0000.0001) %MON exf_hflux_sd                 =   2.0976243460702E+02
(PID.TID 0000.0001) %MON exf_hflux_del2               =   8.5929534179532E-02
(PID.TID 0000.0001) %MON exf_sflux_max                =   2.2426558832133E-07
(PID.TID 0000.0001) %MON exf_sflux_min                =  -1.1302745007652E-06
(PID.TID 0000.0001) %MON exf_sflux_mean               =   4.1067140713865E-08
(PID.TID 0000.0001) %MON exf_sflux_sd                 =   1.1149623659721E-07
(PID.TID 0000.0001) %MON exf_sflux_del2               =   2.4518181902388E-11
(PID.TID 0000.0001) %MON exf_uwind_max                =   1.5552223943166E+01
(PID.TID 0000.0001) %MON exf_uwind_min                =  -1.3360317082825E+01
(PID.TID 0000.0001) %MON exf_uwind_mean               =   2.9000091449830E+00
(PID.TID 0000.0001) %MON exf_uwind_sd                 =   6.7870614095581E+00
(PID.TID 0000.0001) %MON exf_uwind_del2               =   1.6377957037583E-03
(PID.TID 0000.0001) %MON exf_vwind_max                =   1.4778633119035E+01
(PID.TID 0000.0001) %MON exf_vwind_min                =  -1.0403797089325E+01
(PID.TID 0000.0001) %MON exf_vwind_mean               =   4.5880077520088E+00
(PID.TID 0000.0001) %MON exf_vwind_sd                 =   5.9345790304525E+00
(PID.TID 0000.0001) %MON exf_vwind_del2               =   1.6779238840297E-03
(PID.TID 0000.0001) %MON exf_wspeed_max               =   1.8275539495674E+01
(PID.TID 0000.0001) %MON exf_wspeed_min               =   4.0127866943001E-02
(PID.TID 0000.0001) %MON exf_wspeed_mean              =   9.9048478755679E+00
(PID.TID 0000.0001) %MON exf_wspeed_sd                =   3.5548962827535E+00
(PID.TID 0000.0001) %MON exf_wspeed_del2              =   2.3446812034473E-03
(PID.TID 0000.0001) %MON exf_atemp_max                =   2.9778775312816E+02
(PID.TID 0000.0001) %MON exf_atemp_min                =   2.7437067949398E+02
(PID.TID 0000.0001) %MON exf_atemp_mean               =   2.8987844778069E+02
(PID.TID 0000.0001) %MON exf_atemp_sd                 =   4.2917237306297E+00
(PID.TID 0000.0001) %MON exf_atemp_del2               =   3.7038090901854E-03
(PID.TID 0000.0001) %MON exf_aqh_max                  =   1.4934033930000E-02
(PID.TID 0000.0001) %MON exf_aqh_min                  =   3.1387102340020E-03
(PID.TID 0000.0001) %MON exf_aqh_mean                 =   9.5835467508077E-03
(PID.TID 0000.0001) %MON exf_aqh_sd                   =   2.2494375487300E-03
(PID.TID 0000.0001) %MON exf_aqh_del2                 =   2.1297499294189E-06
(PID.TID 0000.0001) %MON exf_lwflux_max               =   1.5589539696096E+02
(PID.TID 0000.0001) %MON exf_lwflux_min               =  -4.2299180215266E+00
(PID.TID 0000.0001) %MON exf_lwflux_mean              =   7.2716921489636E+01
(PID.TID 0000.0001) %MON exf_lwflux_sd                =   2.8099091725092E+01
(PID.TID 0000.0001) %MON exf_lwflux_del2              =   1.7287100062979E-02
(PID.TID 0000.0001) %MON exf_evap_max                 =   2.4738611080314E-07
(PID.TID 0000.0001) %MON exf_evap_min                 =  -4.1043887005568E-08
(PID.TID 0000.0001) %MON exf_evap_mean                =   7.9047562034135E-08
(PID.TID 0000.0001) %MON exf_evap_sd                  =   5.5351738247776E-08
(PID.TID 0000.0001) %MON exf_evap_del2                =   2.1355963377149E-11
(PID.TID 0000.0001) %MON exf_precip_max               =   1.1285378305416E-06
(PID.TID 0000.0001) %MON exf_precip_min               =   0.0000000000000E+00
(PID.TID 0000.0001) %MON exf_precip_mean              =   3.6391941123835E-08
(PID.TID 0000.0001) %MON exf_precip_sd                =   8.5882966635596E-08
(PID.TID 0000.0001) %MON exf_precip_del2              =   1.8742853569072E-11
(PID.TID 0000.0001) %MON exf_swflux_max               =   0.0000000000000E+00
(PID.TID 0000.0001) %MON exf_swflux_min               =  -1.0018620508899E+01
(PID.TID 0000.0001) %MON exf_swflux_mean              =  -3.3367774587859E-01
(PID.TID 0000.0001) %MON exf_swflux_sd                =   1.0580805372639E+00
(PID.TID 0000.0001) %MON exf_swflux_del2              =   2.2887567859380E-04
(PID.TID 0000.0001) %MON exf_swdown_max               =   1.1131800565444E+01
(PID.TID 0000.0001) %MON exf_swdown_min               =   0.0000000000000E+00
(PID.TID 0000.0001) %MON exf_swdown_mean              =   3.7075305097621E-01
(PID.TID 0000.0001) %MON exf_swdown_sd                =   1.1756450414043E+00
(PID.TID 0000.0001) %MON exf_swdown_del2              =   2.5430630954866E-04
(PID.TID 0000.0001) %MON exf_lwdown_max               =   4.0308736100292E+02
(PID.TID 0000.0001) %MON exf_lwdown_min               =   2.4856573372513E+02
(PID.TID 0000.0001) %MON exf_lwdown_mean              =   3.4206445183599E+02
(PID.TID 0000.0001) %MON exf_lwdown_sd                =   2.7634641539191E+01
(PID.TID 0000.0001) %MON exf_lwdown_del2              =   7.4687598170151E-02
(PID.TID 0000.0001) %MON exf_apressure_max            =   1.0296432258166E+05
(PID.TID 0000.0001) %MON exf_apressure_min            =   9.9646253628093E+04
(PID.TID 0000.0001) %MON exf_apressure_mean           =   1.0183626784429E+05
(PID.TID 0000.0001) %MON exf_apressure_sd             =   8.3405620688212E+02
(PID.TID 0000.0001) %MON exf_apressure_del2           =   2.2278654468121E+01
(PID.TID 0000.0001) %MON exf_runoff_max               =   4.4374822325994E-08
(PID.TID 0000.0001) %MON exf_runoff_min               =   0.0000000000000E+00
(PID.TID 0000.0001) %MON exf_runoff_mean              =   1.5884801964352E-09
(PID.TID 0000.0001) %MON exf_runoff_sd                =   5.3901974500338E-09
(PID.TID 0000.0001) %MON exf_runoff_del2              =   1.2741192460478E-12
(PID.TID 0000.0001) // =======================================================
(PID.TID 0000.0001) // End MONITOR EXF statistics
(PID.TID 0000.0001) // =======================================================
 cg2d: Sum(rhs),rhsMax =   1.97722652174757E+03  6.64553384602290E-02
(PID.TID 0000.0001)      cg2d_init_res =   1.44221020815981E+00
(PID.TID 0000.0001)      cg2d_iters(min,last) =      -1     312
(PID.TID 0000.0001)      cg2d_last_res =   6.44164687645491E-12
(PID.TID 0000.0001) // =======================================================
(PID.TID 0000.0001) // Begin MONITOR dynamic field statistics
(PID.TID 0000.0001) // =======================================================
(PID.TID 0000.0001) %MON time_tsnumber                =                    14
(PID.TID 0000.0001) %MON time_secondsf                =   3.3600000000000E+03
(PID.TID 0000.0001) %MON dynstat_eta_max              =   7.6660936740822E-01
(PID.TID 0000.0001) %MON dynstat_eta_min              =  -1.3275603904215E+00
(PID.TID 0000.0001) %MON dynstat_eta_mean             =  -6.7239444584312E-02
(PID.TID 0000.0001) %MON dynstat_eta_sd               =   2.7918363174378E-01
(PID.TID 0000.0001) %MON dynstat_eta_del2             =   2.4169511637609E-06
(PID.TID 0000.0001) %MON dynstat_uvel_max             =   8.8512622134717E-01
(PID.TID 0000.0001) %MON dynstat_uvel_min             =  -2.6687809723563E+00
(PID.TID 0000.0001) %MON dynstat_uvel_mean            =   6.6157362710725E-03
(PID.TID 0000.0001) %MON dynstat_uvel_sd              =   5.0801477159135E-02
(PID.TID 0000.0001) %MON dynstat_uvel_del2            =   5.0407239812675E-07
(PID.TID 0000.0001) %MON dynstat_vvel_max             =   1.2673730652671E+00
(PID.TID 0000.0001) %MON dynstat_vvel_min             =  -7.0741676653571E-01
(PID.TID 0000.0001) %MON dynstat_vvel_mean            =   4.6001075105868E-03
(PID.TID 0000.0001) %MON dynstat_vvel_sd              =   5.0925060555794E-02
(PID.TID 0000.0001) %MON dynstat_vvel_del2            =   5.3493005595496E-07
(PID.TID 0000.0001) %MON dynstat_wvel_max             =   3.8067184011088E-02
(PID.TID 0000.0001) %MON dynstat_wvel_min             =  -3.2896656520246E-02
(PID.TID 0000.0001) %MON dynstat_wvel_mean            =  -1.8257733040505E-05
(PID.TID 0000.0001) %MON dynstat_wvel_sd              =   6.0998128700121E-04
(PID.TID 0000.0001) %MON dynstat_wvel_del2            =   7.0469961261223E-08
(PID.TID 0000.0001) %MON dynstat_theta_max            =   2.6138582169202E+01
(PID.TID 0000.0001) %MON dynstat_theta_min            =   1.4688658198438E+00
(PID.TID 0000.0001) %MON dynstat_theta_mean           =   5.5098857009296E+00
(PID.TID 0000.0001) %MON dynstat_theta_sd             =   4.7732762979586E+00
(PID.TID 0000.0001) %MON dynstat_theta_del2           =   4.0337938002353E-06
(PID.TID 0000.0001) %MON dynstat_salt_max             =   3.9143459081908E+01
(PID.TID 0000.0001) %MON dynstat_salt_min             =   3.3091577309100E+01
(PID.TID 0000.0001) %MON dynstat_salt_mean            =   3.5173367455180E+01
(PID.TID 0000.0001) %MON dynstat_salt_sd              =   3.7892106825318E-01
(PID.TID 0000.0001) %MON dynstat_salt_del2            =   5.3182109426712E-07
(PID.TID 0000.0001) %MON dynstat_sst_max              =   2.6127757862927E+01
(PID.TID 0000.0001) %MON dynstat_sst_min              =   3.8760350753870E+00
(PID.TID 0000.0001) %MON dynstat_sst_mean             =   1.9632495113937E+01
(PID.TID 0000.0001) %MON dynstat_sst_sd               =   3.6355525667380E+00
(PID.TID 0000.0001) %MON dynstat_sst_del2             =   1.9360851549901E-05
(PID.TID 0000.0001) %MON dynstat_sss_max              =   3.7335662610217E+01
(PID.TID 0000.0001) %MON dynstat_sss_min              =   3.3091577309100E+01
(PID.TID 0000.0001) %MON dynstat_sss_mean             =   3.5868622373431E+01
(PID.TID 0000.0001) %MON dynstat_sss_sd               =   4.8746338334487E-01
(PID.TID 0000.0001) %MON dynstat_sss_del2             =   4.9061858207014E-06
(PID.TID 0000.0001) %MON forcing_qnet_max             =   1.0702407575076E+03
(PID.TID 0000.0001) %MON forcing_qnet_min             =  -1.8781533279776E+02
(PID.TID 0000.0001) %MON forcing_qnet_mean            =   3.2621857300837E+02
(PID.TID 0000.0001) %MON forcing_qnet_sd              =   2.1562425145870E+02
(PID.TID 0000.0001) %MON forcing_qnet_del2            =   1.1815004188854E-03
(PID.TID 0000.0001) %MON forcing_qsw_max              =   0.0000000000000E+00
(PID.TID 0000.0001) %MON forcing_qsw_min              =  -1.0018620508899E+01
(PID.TID 0000.0001) %MON forcing_qsw_mean             =  -3.3367774587859E-01
(PID.TID 0000.0001) %MON forcing_qsw_sd               =   1.0580805372639E+00
(PID.TID 0000.0001) %MON forcing_qsw_del2             =   3.4074442015555E-06
(PID.TID 0000.0001) %MON forcing_empmr_max            =   2.2426558832133E-04
(PID.TID 0000.0001) %MON forcing_empmr_min            =  -1.1302745007652E-03
(PID.TID 0000.0001) %MON forcing_empmr_mean           =   4.1067140713865E-05
(PID.TID 0000.0001) %MON forcing_empmr_sd             =   1.1149623659721E-04
(PID.TID 0000.0001) %MON forcing_empmr_del2           =   9.8629173320968E-10
(PID.TID 0000.0001) %MON forcing_fu_max               =   5.0300788548902E-01
(PID.TID 0000.0001) %MON forcing_fu_min               =  -3.3164731809870E-01
(PID.TID 0000.0001) %MON forcing_fu_mean              =   6.8810781741936E-02
(PID.TID 0000.0001) %MON forcing_fu_sd                =   1.3981280909262E-01
(PID.TID 0000.0001) %MON forcing_fu_del2              =   2.8656873343484E-07
(PID.TID 0000.0001) %MON forcing_fv_max               =   5.6544724493838E-01
(PID.TID 0000.0001) %MON forcing_fv_min               =  -1.7567974240538E-01
(PID.TID 0000.0001) %MON forcing_fv_mean              =   9.6396915756484E-02
(PID.TID 0000.0001) %MON forcing_fv_sd                =   1.3411282556930E-01
(PID.TID 0000.0001) %MON forcing_fv_del2              =   2.2881284197395E-07
(PID.TID 0000.0001) %MON trAdv_CFL_u_max              =   1.6862264762009E-01
(PID.TID 0000.0001) %MON trAdv_CFL_v_max              =   7.6892490338527E-02
(PID.TID 0000.0001) %MON trAdv_CFL_w_max              =   5.2098376893095E-01
(PID.TID 0000.0001) %MON advcfl_uvel_max              =   1.6867326102690E-01
(PID.TID 0000.0001) %MON advcfl_vvel_max              =   7.6892490943240E-02
(PID.TID 0000.0001) %MON advcfl_wvel_max              =   5.1230070611544E-01
(PID.TID 0000.0001) %MON advcfl_W_hf_max              =   5.2098376893095E-01
(PID.TID 0000.0001) %MON pe_b_mean                    =  -1.5266584553605E-03
(PID.TID 0000.0001) %MON ke_max                       =   3.2359080756332E+00
(PID.TID 0000.0001) %MON ke_mean                      =   2.6003929020550E-03
(PID.TID 0000.0001) %MON ke_vol                       =   4.5818637829946E+16
(PID.TID 0000.0001) %MON vort_r_min                   =  -5.1350334634471E-04
(PID.TID 0000.0001) %MON vort_r_max                   =   7.7658240091252E-04
(PID.TID 0000.0001) %MON vort_a_mean                  =   8.2147620987597E-05
(PID.TID 0000.0001) %MON vort_a_sd                    =   1.0158034330534E-05
(PID.TID 0000.0001) %MON vort_p_mean                  =   8.4848843233047E-05
(PID.TID 0000.0001) %MON vort_p_sd                    =   3.5001756748584E-05
(PID.TID 0000.0001) %MON surfExpan_theta_mean         =  -4.7925556171691E-04
(PID.TID 0000.0001) %MON surfExpan_salt_mean          =  -1.1336912372768E-03
(PID.TID 0000.0001) // =======================================================
(PID.TID 0000.0001) // End MONITOR dynamic field statistics
(PID.TID 0000.0001) // =======================================================
(PID.TID 0000.0001) // =======================================================
(PID.TID 0000.0001) // Begin OBCS MONITOR field statistics
(PID.TID 0000.0001) // =======================================================
(PID.TID 0000.0001) %MON obc_E_uVel_max               =   2.6399719197324E-01
(PID.TID 0000.0001) %MON obc_E_uVel_min               =  -2.6687809723563E+00
(PID.TID 0000.0001) %MON obc_E_uVel_mean              =   6.8123601506168E-03
(PID.TID 0000.0001) %MON obc_E_uVel_sd                =   4.5012018973000E-02
(PID.TID 0000.0001) %MON obc_E_uVel_Int               =   1.3157392371343E+08
(PID.TID 0000.0001) %MON obc_W_uVel_max               =   3.2513879666356E-01
(PID.TID 0000.0001) %MON obc_W_uVel_min               =  -6.9381863573148E-01
(PID.TID 0000.0001) %MON obc_W_uVel_mean              =  -4.0275239245093E-03
(PID.TID 0000.0001) %MON obc_W_uVel_sd                =   8.5983655733425E-02
(PID.TID 0000.0001) %MON obc_W_uVel_Int               =  -2.4526139962118E+07
(PID.TID 0000.0001) %MON obc_N_vVel_max               =   3.0370853518000E-01
(PID.TID 0000.0001) %MON obc_N_vVel_min               =  -9.9600094365213E-02
(PID.TID 0000.0001) %MON obc_N_vVel_mean              =   2.0167622081880E-02
(PID.TID 0000.0001) %MON obc_N_vVel_sd                =   4.0820430358892E-02
(PID.TID 0000.0001) %MON obc_N_vVel_Int               =   1.6588780657597E+08
(PID.TID 0000.0001) %MON obc_S_vVel_max               =   4.6254233764836E-02
(PID.TID 0000.0001) %MON obc_S_vVel_min               =  -9.3127533793319E-02
(PID.TID 0000.0001) %MON obc_S_vVel_mean              =  -3.4846313989640E-03
(PID.TID 0000.0001) %MON obc_S_vVel_sd                =   1.1206538009147E-02
(PID.TID 0000.0001) %MON obc_S_vVel_Int               =  -3.8780113086886E+07
(PID.TID 0000.0001) %MON obc_E_theta_max              =   2.5543502825894E+01
(PID.TID 0000.0001) %MON obc_E_theta_min              =   1.4633011889082E+00
(PID.TID 0000.0001) %MON obc_E_theta_mean             =   5.4563349362905E+00
(PID.TID 0000.0001) %MON obc_E_theta_sd               =   5.6195520860743E+00
(PID.TID 0000.0001) %MON obc_W_theta_max              =   1.5385271351767E+01
(PID.TID 0000.0001) %MON obc_W_theta_min              =   1.8895914139009E+00
(PID.TID 0000.0001) %MON obc_W_theta_mean             =   4.2050569418159E+00
(PID.TID 0000.0001) %MON obc_W_theta_sd               =   2.6436496729516E+00
(PID.TID 0000.0001) %MON obc_N_theta_max              =   1.6389627614545E+01
(PID.TID 0000.0001) %MON obc_N_theta_min              =   2.0877638145258E+00
(PID.TID 0000.0001) %MON obc_N_theta_mean             =   5.8650285012668E+00
(PID.TID 0000.0001) %MON obc_N_theta_sd               =   3.8420599652757E+00
(PID.TID 0000.0001) %MON obc_S_theta_max              =   2.3210183000053E+01
(PID.TID 0000.0001) %MON obc_S_theta_min              =   1.8976912003686E+00
(PID.TID 0000.0001) %MON obc_S_theta_mean             =   5.4651201365522E+00
(PID.TID 0000.0001) %MON obc_S_theta_sd               =   4.8644782463963E+00
(PID.TID 0000.0001) %MON obc_E_salt_max               =   3.7284653001176E+01
(PID.TID 0000.0001) %MON obc_E_salt_min               =   3.4844695044902E+01
(PID.TID 0000.0001) %MON obc_E_salt_mean              =   3.5160049115756E+01
(PID.TID 0000.0001) %MON obc_E_salt_sd                =   4.6599350200619E-01
(PID.TID 0000.0001) %MON obc_W_salt_max               =   3.5867263951477E+01
(PID.TID 0000.0001) %MON obc_W_salt_min               =   3.3295091106912E+01
(PID.TID 0000.0001) %MON obc_W_salt_mean              =   3.4957939159056E+01
(PID.TID 0000.0001) %MON obc_W_salt_sd                =   2.4691936603318E-01
(PID.TID 0000.0001) %MON obc_N_salt_max               =   3.5910861930873E+01
(PID.TID 0000.0001) %MON obc_N_salt_min               =   3.4917014833729E+01
(PID.TID 0000.0001) %MON obc_N_salt_mean              =   3.5230512997295E+01
(PID.TID 0000.0001) %MON obc_N_salt_sd                =   3.0056400148515E-01
(PID.TID 0000.0001) %MON obc_S_salt_max               =   3.7318250249244E+01
(PID.TID 0000.0001) %MON obc_S_salt_min               =   3.4884963731986E+01
(PID.TID 0000.0001) %MON obc_S_salt_mean              =   3.5182816026030E+01
(PID.TID 0000.0001) %MON obc_S_salt_sd                =   4.4105511458385E-01
(PID.TID 0000.0001) // =======================================================
(PID.TID 0000.0001) // End OBCS MONITOR field statistics
(PID.TID 0000.0001) // =======================================================
(PID.TID 0000.0001) // =======================================================
(PID.TID 0000.0001) // Begin MONITOR EXF statistics
(PID.TID 0000.0001) // =======================================================
(PID.TID 0000.0001) %MON exf_tsnumber                 =                    14
(PID.TID 0000.0001) %MON exf_time_sec                 =   3.3600000000000E+03
(PID.TID 0000.0001) %MON exf_ustress_max              =   5.0105624575396E-01
(PID.TID 0000.0001) %MON exf_ustress_min              =  -3.3440406238123E-01
(PID.TID 0000.0001) %MON exf_ustress_mean             =   6.8437293881795E-02
(PID.TID 0000.0001) %MON exf_ustress_sd               =   1.3978180952939E-01
(PID.TID 0000.0001) %MON exf_ustress_del2             =   3.1698963412193E-07
(PID.TID 0000.0001) %MON exf_vstress_max              =   5.6351573227155E-01
(PID.TID 0000.0001) %MON exf_vstress_min              =  -1.7529182242703E-01
(PID.TID 0000.0001) %MON exf_vstress_mean             =   9.6184141327561E-02
(PID.TID 0000.0001) %MON exf_vstress_sd               =   1.3400752432860E-01
(PID.TID 0000.0001) %MON exf_vstress_del2             =   2.5655521692599E-07
(PID.TID 0000.0001) %MON exf_hflux_max                =   1.0533452109718E+03
(PID.TID 0000.0001) %MON exf_hflux_min                =  -1.2664387352471E+02
(PID.TID 0000.0001) %MON exf_hflux_mean               =   3.2175509585451E+02
(PID.TID 0000.0001) %MON exf_hflux_sd                 =   2.0953395775678E+02
(PID.TID 0000.0001) %MON exf_hflux_del2               =   8.5861783589534E-02
(PID.TID 0000.0001) %MON exf_sflux_max                =   2.2388055937203E-07
(PID.TID 0000.0001) %MON exf_sflux_min                =  -1.1435084314905E-06
(PID.TID 0000.0001) %MON exf_sflux_mean               =   4.0913644947810E-08
(PID.TID 0000.0001) %MON exf_sflux_sd                 =   1.1218645860654E-07
(PID.TID 0000.0001) %MON exf_sflux_del2               =   2.4625413761349E-11
(PID.TID 0000.0001) %MON exf_uwind_max                =   1.5545781678512E+01
(PID.TID 0000.0001) %MON exf_uwind_min                =  -1.3406585311331E+01
(PID.TID 0000.0001) %MON exf_uwind_mean               =   2.8915346928768E+00
(PID.TID 0000.0001) %MON exf_uwind_sd                 =   6.7921663555664E+00
(PID.TID 0000.0001) %MON exf_uwind_del2               =   1.6380839589851E-03
(PID.TID 0000.0001) %MON exf_vwind_max                =   1.4761971885822E+01
(PID.TID 0000.0001) %MON exf_vwind_min                =  -1.0387495781322E+01
(PID.TID 0000.0001) %MON exf_vwind_mean               =   4.5819064253036E+00
(PID.TID 0000.0001) %MON exf_vwind_sd                 =   5.9312826879349E+00
(PID.TID 0000.0001) %MON exf_vwind_del2               =   1.6767948117913E-03
(PID.TID 0000.0001) %MON exf_wspeed_max               =   1.8262058239694E+01
(PID.TID 0000.0001) %MON exf_wspeed_min               =   6.3465555601796E-02
(PID.TID 0000.0001) %MON exf_wspeed_mean              =   9.9016153947684E+00
(PID.TID 0000.0001) %MON exf_wspeed_sd                =   3.5533772766651E+00
(PID.TID 0000.0001) %MON exf_wspeed_del2              =   2.3440750043260E-03
(PID.TID 0000.0001) %MON exf_atemp_max                =   2.9778729909957E+02
(PID.TID 0000.0001) %MON exf_atemp_min                =   2.7437517322307E+02
(PID.TID 0000.0001) %MON exf_atemp_mean               =   2.8987852129445E+02
(PID.TID 0000.0001) %MON exf_atemp_sd                 =   4.2885991138646E+00
(PID.TID 0000.0001) %MON exf_atemp_del2               =   3.7038033174382E-03
(PID.TID 0000.0001) %MON exf_aqh_max                  =   1.4955638591838E-02
(PID.TID 0000.0001) %MON exf_aqh_min                  =   3.1454097175368E-03
(PID.TID 0000.0001) %MON exf_aqh_mean                 =   9.5831635687687E-03
(PID.TID 0000.0001) %MON exf_aqh_sd                   =   2.2474870237113E-03
(PID.TID 0000.0001) %MON exf_aqh_del2                 =   2.1296363948058E-06
(PID.TID 0000.0001) %MON exf_lwflux_max               =   1.5568528361043E+02
(PID.TID 0000.0001) %MON exf_lwflux_min               =  -4.8891725413825E+00
(PID.TID 0000.0001) %MON exf_lwflux_mean              =   7.2711951374921E+01
(PID.TID 0000.0001) %MON exf_lwflux_sd                =   2.8142884932929E+01
(PID.TID 0000.0001) %MON exf_lwflux_del2              =   1.7288404854679E-02
(PID.TID 0000.0001) %MON exf_evap_max                 =   2.4713412747383E-07
(PID.TID 0000.0001) %MON exf_evap_min                 =  -4.0908950279199E-08
(PID.TID 0000.0001) %MON exf_evap_mean                =   7.8988924493622E-08
(PID.TID 0000.0001) %MON exf_evap_sd                  =   5.5281474517540E-08
(PID.TID 0000.0001) %MON exf_evap_del2                =   2.1335859972070E-11
(PID.TID 0000.0001) %MON exf_precip_max               =   1.1416481401050E-06
(PID.TID 0000.0001) %MON exf_precip_min               =   0.0000000000000E+00
(PID.TID 0000.0001) %MON exf_precip_mean              =   3.6486799349376E-08
(PID.TID 0000.0001) %MON exf_precip_sd                =   8.6682229387088E-08
(PID.TID 0000.0001) %MON exf_precip_del2              =   1.8894158715420E-11
(PID.TID 0000.0001) %MON exf_swflux_max               =   0.0000000000000E+00
(PID.TID 0000.0001) %MON exf_swflux_min               =  -8.9640288763835E+00
(PID.TID 0000.0001) %MON exf_swflux_mean              =  -2.9855377262821E-01
(PID.TID 0000.0001) %MON exf_swflux_sd                =   9.4670363860455E-01
(PID.TID 0000.0001) %MON exf_swflux_del2              =   2.0478350189971E-04
(PID.TID 0000.0001) %MON exf_swdown_max               =   9.9600320848706E+00
(PID.TID 0000.0001) %MON exf_swdown_min               =   0.0000000000000E+00
(PID.TID 0000.0001) %MON exf_swdown_mean              =   3.3172641403135E-01
(PID.TID 0000.0001) %MON exf_swdown_sd                =   1.0518929317828E+00
(PID.TID 0000.0001) %MON exf_swdown_del2              =   2.2753722433301E-04
(PID.TID 0000.0001) %MON exf_lwdown_max               =   4.0318935473728E+02
(PID.TID 0000.0001) %MON exf_lwdown_min               =   2.4850580245944E+02
(PID.TID 0000.0001) %MON exf_lwdown_mean              =   3.4206542991705E+02
(PID.TID 0000.0001) %MON exf_lwdown_sd                =   2.7663489295796E+01
(PID.TID 0000.0001) %MON exf_lwdown_del2              =   7.4688760079379E-02
(PID.TID 0000.0001) %MON exf_apressure_max            =   1.0296179734346E+05
(PID.TID 0000.0001) %MON exf_apressure_min            =   9.9645092095904E+04
(PID.TID 0000.0001) %MON exf_apressure_mean           =   1.0183463413666E+05
(PID.TID 0000.0001) %MON exf_apressure_sd             =   8.3352738559203E+02
(PID.TID 0000.0001) %MON exf_apressure_del2           =   2.2278306522379E+01
(PID.TID 0000.0001) %MON exf_runoff_max               =   4.4374822325994E-08
(PID.TID 0000.0001) %MON exf_runoff_min               =   0.0000000000000E+00
(PID.TID 0000.0001) %MON exf_runoff_mean              =   1.5884801964352E-09
(PID.TID 0000.0001) %MON exf_runoff_sd                =   5.3901974500338E-09
(PID.TID 0000.0001) %MON exf_runoff_del2              =   1.2741192460478E-12
(PID.TID 0000.0001) // =======================================================
(PID.TID 0000.0001) // End MONITOR EXF statistics
(PID.TID 0000.0001) // =======================================================
 cg2d: Sum(rhs),rhsMax =   2.21430443685809E+03  6.59962937805476E-02
(PID.TID 0000.0001)      cg2d_init_res =   1.47510294400346E+00
(PID.TID 0000.0001)      cg2d_iters(min,last) =      -1     311
(PID.TID 0000.0001)      cg2d_last_res =   6.85059848309310E-12
(PID.TID 0000.0001) // =======================================================
(PID.TID 0000.0001) // Begin MONITOR dynamic field statistics
(PID.TID 0000.0001) // =======================================================
(PID.TID 0000.0001) %MON time_tsnumber                =                    15
(PID.TID 0000.0001) %MON time_secondsf                =   3.6000000000000E+03
(PID.TID 0000.0001) %MON dynstat_eta_max              =   7.5100236103533E-01
(PID.TID 0000.0001) %MON dynstat_eta_min              =  -1.4092392432904E+00
(PID.TID 0000.0001) %MON dynstat_eta_mean             =  -7.5301741523941E-02
(PID.TID 0000.0001) %MON dynstat_eta_sd               =   2.8784075972682E-01
(PID.TID 0000.0001) %MON dynstat_eta_del2             =   2.4803309397680E-06
(PID.TID 0000.0001) %MON dynstat_uvel_max             =   8.8332333903050E-01
(PID.TID 0000.0001) %MON dynstat_uvel_min             =  -2.7278025167691E+00
(PID.TID 0000.0001) %MON dynstat_uvel_mean            =   6.7590974142366E-03
(PID.TID 0000.0001) %MON dynstat_uvel_sd              =   5.0865077076006E-02
(PID.TID 0000.0001) %MON dynstat_uvel_del2            =   5.1169995969107E-07
(PID.TID 0000.0001) %MON dynstat_vvel_max             =   1.2637486434807E+00
(PID.TID 0000.0001) %MON dynstat_vvel_min             =  -7.8667343433490E-01
(PID.TID 0000.0001) %MON dynstat_vvel_mean            =   4.5984322697909E-03
(PID.TID 0000.0001) %MON dynstat_vvel_sd              =   5.0934127789095E-02
(PID.TID 0000.0001) %MON dynstat_vvel_del2            =   5.4287162162416E-07
(PID.TID 0000.0001) %MON dynstat_wvel_max             =   3.9392165677282E-02
(PID.TID 0000.0001) %MON dynstat_wvel_min             =  -3.3083538932988E-02
(PID.TID 0000.0001) %MON dynstat_wvel_mean            =  -1.9303598363671E-05
(PID.TID 0000.0001) %MON dynstat_wvel_sd              =   6.1161071110176E-04
(PID.TID 0000.0001) %MON dynstat_wvel_del2            =   7.0373555907740E-08
(PID.TID 0000.0001) %MON dynstat_theta_max            =   2.6139408094478E+01
(PID.TID 0000.0001) %MON dynstat_theta_min            =   1.4688660525512E+00
(PID.TID 0000.0001) %MON dynstat_theta_mean           =   5.5098998106015E+00
(PID.TID 0000.0001) %MON dynstat_theta_sd             =   4.7732778184474E+00
(PID.TID 0000.0001) %MON dynstat_theta_del2           =   4.0343478618376E-06
(PID.TID 0000.0001) %MON dynstat_salt_max             =   3.9138859139321E+01
(PID.TID 0000.0001) %MON dynstat_salt_min             =   3.3091719162980E+01
(PID.TID 0000.0001) %MON dynstat_salt_mean            =   3.5173368003714E+01
(PID.TID 0000.0001) %MON dynstat_salt_sd              =   3.7892254170848E-01
(PID.TID 0000.0001) %MON dynstat_salt_del2            =   5.3363375625010E-07
(PID.TID 0000.0001) %MON dynstat_sst_max              =   2.6128276940005E+01
(PID.TID 0000.0001) %MON dynstat_sst_min              =   3.8598699535515E+00
(PID.TID 0000.0001) %MON dynstat_sst_mean             =   1.9631797106702E+01
(PID.TID 0000.0001) %MON dynstat_sst_sd               =   3.6354523863618E+00
(PID.TID 0000.0001) %MON dynstat_sst_del2             =   1.9421249742385E-05
(PID.TID 0000.0001) %MON dynstat_sss_max              =   3.7335727041263E+01
(PID.TID 0000.0001) %MON dynstat_sss_min              =   3.3091719162980E+01
(PID.TID 0000.0001) %MON dynstat_sss_mean             =   3.5868650232951E+01
(PID.TID 0000.0001) %MON dynstat_sss_sd               =   4.8747411767179E-01
(PID.TID 0000.0001) %MON dynstat_sss_del2             =   4.9011122646047E-06
(PID.TID 0000.0001) %MON forcing_qnet_max             =   1.0690555875847E+03
(PID.TID 0000.0001) %MON forcing_qnet_min             =  -1.8970702244147E+02
(PID.TID 0000.0001) %MON forcing_qnet_mean            =   3.2603364439079E+02
(PID.TID 0000.0001) %MON forcing_qnet_sd              =   2.1540745249867E+02
(PID.TID 0000.0001) %MON forcing_qnet_del2            =   1.1811108978261E-03
(PID.TID 0000.0001) %MON forcing_qsw_max              =   0.0000000000000E+00
(PID.TID 0000.0001) %MON forcing_qsw_min              =  -8.9640288763835E+00
(PID.TID 0000.0001) %MON forcing_qsw_mean             =  -2.9855377262821E-01
(PID.TID 0000.0001) %MON forcing_qsw_sd               =   9.4670363860455E-01
(PID.TID 0000.0001) %MON forcing_qsw_del2             =   3.0487658645497E-06
(PID.TID 0000.0001) %MON forcing_empmr_max            =   2.2388055937203E-04
(PID.TID 0000.0001) %MON forcing_empmr_min            =  -1.1435084314905E-03
(PID.TID 0000.0001) %MON forcing_empmr_mean           =   4.0913644947810E-05
(PID.TID 0000.0001) %MON forcing_empmr_sd             =   1.1218645860654E-04
(PID.TID 0000.0001) %MON forcing_empmr_del2           =   1.0025217760013E-09
(PID.TID 0000.0001) %MON forcing_fu_max               =   5.0105601395424E-01
(PID.TID 0000.0001) %MON forcing_fu_min               =  -3.3436571753252E-01
(PID.TID 0000.0001) %MON forcing_fu_mean              =   6.8540733271966E-02
(PID.TID 0000.0001) %MON forcing_fu_sd                =   1.3979099980088E-01
(PID.TID 0000.0001) %MON forcing_fu_del2              =   2.8876747829386E-07
(PID.TID 0000.0001) %MON forcing_fv_max               =   5.6349120258055E-01
(PID.TID 0000.0001) %MON forcing_fv_min               =  -1.7527754735469E-01
(PID.TID 0000.0001) %MON forcing_fv_mean              =   9.6208888877143E-02
(PID.TID 0000.0001) %MON forcing_fv_sd                =   1.3401652218553E-01
(PID.TID 0000.0001) %MON forcing_fv_del2              =   2.2872452722642E-07
(PID.TID 0000.0001) %MON trAdv_CFL_u_max              =   1.7235182929089E-01
(PID.TID 0000.0001) %MON trAdv_CFL_v_max              =   7.6672593904852E-02
(PID.TID 0000.0001) %MON trAdv_CFL_w_max              =   5.2243258705823E-01
(PID.TID 0000.0001) %MON advcfl_uvel_max              =   1.7240356204076E-01
(PID.TID 0000.0001) %MON advcfl_vvel_max              =   7.6672594507835E-02
(PID.TID 0000.0001) %MON advcfl_wvel_max              =   5.1372537727393E-01
(PID.TID 0000.0001) %MON advcfl_W_hf_max              =   5.2243258705823E-01
(PID.TID 0000.0001) %MON pe_b_mean                    =  -1.7158721955246E-03
(PID.TID 0000.0001) %MON ke_max                       =   3.3984096229712E+00
(PID.TID 0000.0001) %MON ke_mean                      =   2.6050027280611E-03
(PID.TID 0000.0001) %MON ke_vol                       =   4.5818637829946E+16
(PID.TID 0000.0001) %MON vort_r_min                   =  -5.1192592827774E-04
(PID.TID 0000.0001) %MON vort_r_max                   =   7.9269382436752E-04
(PID.TID 0000.0001) %MON vort_a_mean                  =   8.2147620151434E-05
(PID.TID 0000.0001) %MON vort_a_sd                    =   1.0161243415692E-05
(PID.TID 0000.0001) %MON vort_p_mean                  =   8.4848842369388E-05
(PID.TID 0000.0001) %MON vort_p_sd                    =   3.5006236800329E-05
(PID.TID 0000.0001) %MON surfExpan_theta_mean         =  -5.1646750771787E-04
(PID.TID 0000.0001) %MON surfExpan_salt_mean          =  -1.1939691147631E-03
(PID.TID 0000.0001) // =======================================================
(PID.TID 0000.0001) // End MONITOR dynamic field statistics
(PID.TID 0000.0001) // =======================================================
(PID.TID 0000.0001) // =======================================================
(PID.TID 0000.0001) // Begin OBCS MONITOR field statistics
(PID.TID 0000.0001) // =======================================================
(PID.TID 0000.0001) %MON obc_E_uVel_max               =   2.6404169471781E-01
(PID.TID 0000.0001) %MON obc_E_uVel_min               =  -2.7278025167691E+00
(PID.TID 0000.0001) %MON obc_E_uVel_mean              =   7.2567055999697E-03
(PID.TID 0000.0001) %MON obc_E_uVel_sd                =   4.5131166098935E-02
(PID.TID 0000.0001) %MON obc_E_uVel_Int               =   1.4015601170687E+08
(PID.TID 0000.0001) %MON obc_W_uVel_max               =   3.2552065211615E-01
(PID.TID 0000.0001) %MON obc_W_uVel_min               =  -6.9361238538007E-01
(PID.TID 0000.0001) %MON obc_W_uVel_mean              =  -3.7982834672129E-03
(PID.TID 0000.0001) %MON obc_W_uVel_sd                =   8.5899733159101E-02
(PID.TID 0000.0001) %MON obc_W_uVel_Int               =  -2.3130149858517E+07
(PID.TID 0000.0001) %MON obc_N_vVel_max               =   3.0362801572666E-01
(PID.TID 0000.0001) %MON obc_N_vVel_min               =  -9.9420894118766E-02
(PID.TID 0000.0001) %MON obc_N_vVel_mean              =   2.0173224744944E-02
(PID.TID 0000.0001) %MON obc_N_vVel_sd                =   4.0844322703573E-02
(PID.TID 0000.0001) %MON obc_N_vVel_Int               =   1.6593389101184E+08
(PID.TID 0000.0001) %MON obc_S_vVel_max               =   4.5288892656062E-02
(PID.TID 0000.0001) %MON obc_S_vVel_min               =  -9.3554147304536E-02
(PID.TID 0000.0001) %MON obc_S_vVel_mean              =  -4.5313521768453E-03
(PID.TID 0000.0001) %MON obc_S_vVel_sd                =   1.1174243664081E-02
(PID.TID 0000.0001) %MON obc_S_vVel_Int               =  -5.0428963564644E+07
(PID.TID 0000.0001) %MON obc_E_theta_max              =   2.5543400077115E+01
(PID.TID 0000.0001) %MON obc_E_theta_min              =   1.4633015851955E+00
(PID.TID 0000.0001) %MON obc_E_theta_mean             =   5.4563345982347E+00
(PID.TID 0000.0001) %MON obc_E_theta_sd               =   5.6195484728212E+00
(PID.TID 0000.0001) %MON obc_W_theta_max              =   1.5385151438155E+01
(PID.TID 0000.0001) %MON obc_W_theta_min              =   1.8895914629663E+00
(PID.TID 0000.0001) %MON obc_W_theta_mean             =   4.2050447212969E+00
(PID.TID 0000.0001) %MON obc_W_theta_sd               =   2.6436294328326E+00
(PID.TID 0000.0001) %MON obc_N_theta_max              =   1.6389539512358E+01
(PID.TID 0000.0001) %MON obc_N_theta_min              =   2.0877605393519E+00
(PID.TID 0000.0001) %MON obc_N_theta_mean             =   5.8650246976748E+00
(PID.TID 0000.0001) %MON obc_N_theta_sd               =   3.8420540742396E+00
(PID.TID 0000.0001) %MON obc_S_theta_max              =   2.3210099062962E+01
(PID.TID 0000.0001) %MON obc_S_theta_min              =   1.8976911896308E+00
(PID.TID 0000.0001) %MON obc_S_theta_mean             =   5.4651185211119E+00
(PID.TID 0000.0001) %MON obc_S_theta_sd               =   4.8644738336265E+00
(PID.TID 0000.0001) %MON obc_E_salt_max               =   3.7284640931659E+01
(PID.TID 0000.0001) %MON obc_E_salt_min               =   3.4844695097122E+01
(PID.TID 0000.0001) %MON obc_E_salt_mean              =   3.5160049185614E+01
(PID.TID 0000.0001) %MON obc_E_salt_sd                =   4.6599353163524E-01
(PID.TID 0000.0001) %MON obc_W_salt_max               =   3.5867264454533E+01
(PID.TID 0000.0001) %MON obc_W_salt_min               =   3.3295096609545E+01
(PID.TID 0000.0001) %MON obc_W_salt_mean              =   3.4957938633753E+01
(PID.TID 0000.0001) %MON obc_W_salt_sd                =   2.4691863212268E-01
(PID.TID 0000.0001) %MON obc_N_salt_max               =   3.5910861522510E+01
(PID.TID 0000.0001) %MON obc_N_salt_min               =   3.4917014819804E+01
(PID.TID 0000.0001) %MON obc_N_salt_mean              =   3.5230512871081E+01
(PID.TID 0000.0001) %MON obc_N_salt_sd                =   3.0056408045987E-01
(PID.TID 0000.0001) %MON obc_S_salt_max               =   3.7318243364860E+01
(PID.TID 0000.0001) %MON obc_S_salt_min               =   3.4884963728156E+01
(PID.TID 0000.0001) %MON obc_S_salt_mean              =   3.5182815708065E+01
(PID.TID 0000.0001) %MON obc_S_salt_sd                =   4.4105407774895E-01
(PID.TID 0000.0001) // =======================================================
(PID.TID 0000.0001) // End OBCS MONITOR field statistics
(PID.TID 0000.0001) // =======================================================
 Computing Diagnostic #     23  ETAN         Counter:      15   Parms: SM      M1      
 Computing Diagnostic #     80  oceTAUX      Counter:      15   Parms: UU      U1      
           Vector  Mate for  oceTAUX      Diagnostic #     81  oceTAUY  exists 
 Computing Diagnostic #     81  oceTAUY      Counter:      15   Parms: VV      U1      
           Vector  Mate for  oceTAUY      Diagnostic #     80  oceTAUX  exists 
 Computing Diagnostic #    185  EXFuwind     Counter:      15   Parms: UM      U1      
 Computing Diagnostic #    186  EXFvwind     Counter:      15   Parms: VM      U1      
 Computing Diagnostic #     26  THETA        Counter:      15   Parms: SMR     MR      
 Computing Diagnostic #     27  SALT         Counter:      15   Parms: SMR     MR      
 Computing Diagnostic #     30  UVEL         Counter:      15   Parms: UUR     MR      
           Vector  Mate for  UVEL         Diagnostic #     31  VVEL     exists 
 Computing Diagnostic #     31  VVEL         Counter:      15   Parms: VVR     MR      
           Vector  Mate for  VVEL         Diagnostic #     30  UVEL     exists 
 Computing Diagnostic #     32  WVEL         Counter:      15   Parms: WM      LR      
(PID.TID 0000.0001) %CHECKPOINT        15 ckptA
(PID.TID 0000.0001)   Seconds in section "ALL                    [THE_MODEL_MAIN]":
(PID.TID 0000.0001)           User time:   36.7296347618103
(PID.TID 0000.0001)         System time:  0.000000000000000E+000
(PID.TID 0000.0001)     Wall clock time:   53.0599429607391
(PID.TID 0000.0001)          No. starts:           1
(PID.TID 0000.0001)           No. stops:           1
(PID.TID 0000.0001)   Seconds in section "INITIALISE_FIXED       [THE_MODEL_MAIN]":
(PID.TID 0000.0001)           User time:   1.56159997731447
(PID.TID 0000.0001)         System time:  0.000000000000000E+000
(PID.TID 0000.0001)     Wall clock time:   5.61419105529785
(PID.TID 0000.0001)          No. starts:           1
(PID.TID 0000.0001)           No. stops:           1
(PID.TID 0000.0001)   Seconds in section "THE_MAIN_LOOP          [THE_MODEL_MAIN]":
(PID.TID 0000.0001)           User time:   35.1680219173431
(PID.TID 0000.0001)         System time:  0.000000000000000E+000
(PID.TID 0000.0001)     Wall clock time:   47.4457230567932
(PID.TID 0000.0001)          No. starts:           1
(PID.TID 0000.0001)           No. stops:           1
(PID.TID 0000.0001)   Seconds in section "INITIALISE_VARIA    [THE_MAIN_LOOP]":
(PID.TID 0000.0001)           User time:   1.10214889049530
(PID.TID 0000.0001)         System time:  0.000000000000000E+000
(PID.TID 0000.0001)     Wall clock time:   3.28912806510925
(PID.TID 0000.0001)          No. starts:           1
(PID.TID 0000.0001)           No. stops:           1
(PID.TID 0000.0001)   Seconds in section "MAIN LOOP           [THE_MAIN_LOOP]":
(PID.TID 0000.0001)           User time:   34.0658552646637
(PID.TID 0000.0001)         System time:  0.000000000000000E+000
(PID.TID 0000.0001)     Wall clock time:   44.1565771102905
(PID.TID 0000.0001)          No. starts:           1
(PID.TID 0000.0001)           No. stops:           1
(PID.TID 0000.0001)   Seconds in section "MAIN_DO_LOOP        [THE_MAIN_LOOP]":
(PID.TID 0000.0001)           User time:   34.0657703876495
(PID.TID 0000.0001)         System time:  0.000000000000000E+000
(PID.TID 0000.0001)     Wall clock time:   44.1564881801605
(PID.TID 0000.0001)          No. starts:          15
(PID.TID 0000.0001)           No. stops:          15
(PID.TID 0000.0001)   Seconds in section "FORWARD_STEP        [MAIN_DO_LOOP]":
(PID.TID 0000.0001)           User time:   34.0655727386475
(PID.TID 0000.0001)         System time:  0.000000000000000E+000
(PID.TID 0000.0001)     Wall clock time:   44.1562850475311
(PID.TID 0000.0001)          No. starts:          15
(PID.TID 0000.0001)           No. stops:          15
(PID.TID 0000.0001)   Seconds in section "DO_STATEVARS_DIAGS  [FORWARD_STEP]":
(PID.TID 0000.0001)           User time:  0.305114984512329
(PID.TID 0000.0001)         System time:  0.000000000000000E+000
(PID.TID 0000.0001)     Wall clock time:  0.309445619583130
(PID.TID 0000.0001)          No. starts:          45
(PID.TID 0000.0001)           No. stops:          45
(PID.TID 0000.0001)   Seconds in section "LOAD_FIELDS_DRIVER  [FORWARD_STEP]":
(PID.TID 0000.0001)           User time:  0.169044971466064
(PID.TID 0000.0001)         System time:  0.000000000000000E+000
(PID.TID 0000.0001)     Wall clock time:  0.214034795761108
(PID.TID 0000.0001)          No. starts:          15
(PID.TID 0000.0001)           No. stops:          15
(PID.TID 0000.0001)   Seconds in section "EXF_GETFORCING     [LOAD_FLDS_DRIVER]":
(PID.TID 0000.0001)           User time:  0.168694019317627
(PID.TID 0000.0001)         System time:  0.000000000000000E+000
(PID.TID 0000.0001)     Wall clock time:  0.213671207427979
(PID.TID 0000.0001)          No. starts:          15
(PID.TID 0000.0001)           No. stops:          15
(PID.TID 0000.0001)   Seconds in section "EXTERNAL_FLDS_LOAD [LOAD_FLDS_DRIVER]":
(PID.TID 0000.0001)           User time:  9.107589721679688E-005
(PID.TID 0000.0001)         System time:  0.000000000000000E+000
(PID.TID 0000.0001)     Wall clock time:  1.037120819091797E-004
(PID.TID 0000.0001)          No. starts:          15
(PID.TID 0000.0001)           No. stops:          15
(PID.TID 0000.0001)   Seconds in section "DO_ATMOSPHERIC_PHYS [FORWARD_STEP]":
(PID.TID 0000.0001)           User time:  7.987022399902344E-005
(PID.TID 0000.0001)         System time:  0.000000000000000E+000
(PID.TID 0000.0001)     Wall clock time:  7.963180541992188E-005
(PID.TID 0000.0001)          No. starts:          15
(PID.TID 0000.0001)           No. stops:          15
(PID.TID 0000.0001)   Seconds in section "DO_OCEANIC_PHYS     [FORWARD_STEP]":
(PID.TID 0000.0001)           User time:   4.62936210632324
(PID.TID 0000.0001)         System time:  0.000000000000000E+000
(PID.TID 0000.0001)     Wall clock time:   4.70804214477539
(PID.TID 0000.0001)          No. starts:          15
(PID.TID 0000.0001)           No. stops:          15
(PID.TID 0000.0001)   Seconds in section "KPP_CALC [DO_OCEANIC_PHYS]":
(PID.TID 0000.0001)           User time:   3.99391698837280
(PID.TID 0000.0001)         System time:  0.000000000000000E+000
(PID.TID 0000.0001)     Wall clock time:   4.06005668640137
(PID.TID 0000.0001)          No. starts:          15
(PID.TID 0000.0001)           No. stops:          15
(PID.TID 0000.0001)   Seconds in section "DYNAMICS            [FORWARD_STEP]":
(PID.TID 0000.0001)           User time:   11.2870843410492
(PID.TID 0000.0001)         System time:  0.000000000000000E+000
(PID.TID 0000.0001)     Wall clock time:   11.3460059165955
(PID.TID 0000.0001)          No. starts:          15
(PID.TID 0000.0001)           No. stops:          15
(PID.TID 0000.0001)   Seconds in section "UPDATE_SURF_DR      [FORWARD_STEP]":
(PID.TID 0000.0001)           User time:  0.121380567550659
(PID.TID 0000.0001)         System time:  0.000000000000000E+000
(PID.TID 0000.0001)     Wall clock time:  0.122554540634155
(PID.TID 0000.0001)          No. starts:          15
(PID.TID 0000.0001)           No. stops:          15
(PID.TID 0000.0001)   Seconds in section "SOLVE_FOR_PRESSURE  [FORWARD_STEP]":
(PID.TID 0000.0001)           User time:   1.11156511306763
(PID.TID 0000.0001)         System time:  0.000000000000000E+000
(PID.TID 0000.0001)     Wall clock time:   1.12029719352722
(PID.TID 0000.0001)          No. starts:          15
(PID.TID 0000.0001)           No. stops:          15
(PID.TID 0000.0001)   Seconds in section "MOM_CORRECTION_STEP [FORWARD_STEP]":
(PID.TID 0000.0001)           User time:  0.247005224227905
(PID.TID 0000.0001)         System time:  0.000000000000000E+000
(PID.TID 0000.0001)     Wall clock time:  0.247079849243164
(PID.TID 0000.0001)          No. starts:          15
(PID.TID 0000.0001)           No. stops:          15
(PID.TID 0000.0001)   Seconds in section "INTEGR_CONTINUITY   [FORWARD_STEP]":
(PID.TID 0000.0001)           User time:  0.320850849151611
(PID.TID 0000.0001)         System time:  0.000000000000000E+000
(PID.TID 0000.0001)     Wall clock time:  0.321745157241821
(PID.TID 0000.0001)          No. starts:          15
(PID.TID 0000.0001)           No. stops:          15
(PID.TID 0000.0001)   Seconds in section "BLOCKING_EXCHANGES  [FORWARD_STEP]":
(PID.TID 0000.0001)           User time:   1.34423732757568
(PID.TID 0000.0001)         System time:  0.000000000000000E+000
(PID.TID 0000.0001)     Wall clock time:   1.34542655944824
(PID.TID 0000.0001)          No. starts:          30
(PID.TID 0000.0001)           No. stops:          30
(PID.TID 0000.0001)   Seconds in section "THERMODYNAMICS      [FORWARD_STEP]":
(PID.TID 0000.0001)           User time:   7.56125140190125
(PID.TID 0000.0001)         System time:  0.000000000000000E+000
(PID.TID 0000.0001)     Wall clock time:   7.63074016571045
(PID.TID 0000.0001)          No. starts:          15
(PID.TID 0000.0001)           No. stops:          15
(PID.TID 0000.0001)   Seconds in section "TRC_CORRECTION_STEP [FORWARD_STEP]":
(PID.TID 0000.0001)           User time:  1.173019409179688E-004
(PID.TID 0000.0001)         System time:  0.000000000000000E+000
(PID.TID 0000.0001)     Wall clock time:  1.647472381591797E-004
(PID.TID 0000.0001)          No. starts:          15
(PID.TID 0000.0001)           No. stops:          15
(PID.TID 0000.0001)   Seconds in section "MONITOR             [FORWARD_STEP]":
(PID.TID 0000.0001)           User time:   1.13801193237305
(PID.TID 0000.0001)         System time:  0.000000000000000E+000
(PID.TID 0000.0001)     Wall clock time:   1.20445966720581
(PID.TID 0000.0001)          No. starts:          15
(PID.TID 0000.0001)           No. stops:          15
(PID.TID 0000.0001)   Seconds in section "DO_THE_MODEL_IO     [FORWARD_STEP]":
(PID.TID 0000.0001)           User time:   1.95710945129395
(PID.TID 0000.0001)         System time:  0.000000000000000E+000
(PID.TID 0000.0001)     Wall clock time:   5.53282713890076
(PID.TID 0000.0001)          No. starts:          15
(PID.TID 0000.0001)           No. stops:          15
(PID.TID 0000.0001)   Seconds in section "DO_WRITE_PICKUP     [FORWARD_STEP]":
(PID.TID 0000.0001)           User time:   3.87109088897705
(PID.TID 0000.0001)         System time:  0.000000000000000E+000
(PID.TID 0000.0001)     Wall clock time:   10.0515699386597
(PID.TID 0000.0001)          No. starts:          15
(PID.TID 0000.0001)           No. stops:          15
(PID.TID 0000.0001) // ======================================================
(PID.TID 0000.0001) // Tile <-> Tile communication statistics
(PID.TID 0000.0001) // ======================================================
(PID.TID 0000.0001) // o Tile number: 000001
(PID.TID 0000.0001) //         No. X exchanges =              0
(PID.TID 0000.0001) //            Max. X spins =              0
(PID.TID 0000.0001) //            Min. X spins =     1000000000
(PID.TID 0000.0001) //          Total. X spins =              0
(PID.TID 0000.0001) //            Avg. X spins =       0.00E+00
(PID.TID 0000.0001) //         No. Y exchanges =              0
(PID.TID 0000.0001) //            Max. Y spins =              0
(PID.TID 0000.0001) //            Min. Y spins =     1000000000
(PID.TID 0000.0001) //          Total. Y spins =              0
(PID.TID 0000.0001) //            Avg. Y spins =       0.00E+00
(PID.TID 0000.0001) // o Thread number: 000001
(PID.TID 0000.0001) //            No. barriers =          72752
(PID.TID 0000.0001) //      Max. barrier spins =              1
(PID.TID 0000.0001) //      Min. barrier spins =              1
(PID.TID 0000.0001) //     Total barrier spins =          72752
(PID.TID 0000.0001) //      Avg. barrier spins =       1.00E+00
PROGRAM MAIN: Execution ended Normally
