(PID.TID 0000.0001) 
(PID.TID 0000.0001) // ======================================================
(PID.TID 0000.0001) //                      MITgcm UV
(PID.TID 0000.0001) //                      =========
(PID.TID 0000.0001) // ======================================================
(PID.TID 0000.0001) // execution environment starting up...
(PID.TID 0000.0001) 
(PID.TID 0000.0001) // MITgcmUV version:  checkpoint67c
(PID.TID 0000.0001) // Build user:        dmenemen
(PID.TID 0000.0001) // Build host:        r15i6n12
(PID.TID 0000.0001) // Build date:        Fri Jul 27 03:41:11 PDT 2018
(PID.TID 0000.0001) 
(PID.TID 0000.0001) // =======================================================
(PID.TID 0000.0001) // Execution Environment parameter file "eedata"
(PID.TID 0000.0001) // =======================================================
(PID.TID 0000.0001) ># Example "eedata" file
(PID.TID 0000.0001) ># Lines beginning "#" are comments
(PID.TID 0000.0001) ># nTx - No. threads per process in X
(PID.TID 0000.0001) ># nTy - No. threads per process in Y
(PID.TID 0000.0001) > &EEPARMS
(PID.TID 0000.0001) > nTx=1,
(PID.TID 0000.0001) > nTy=1,
(PID.TID 0000.0001) ># debugMode=.TRUE.,
(PID.TID 0000.0001) > /
(PID.TID 0000.0001) ># Note: Some systems use & as the
(PID.TID 0000.0001) ># namelist terminator. Other systems
(PID.TID 0000.0001) ># use a / character (as shown here).
(PID.TID 0000.0001) 
(PID.TID 0000.0001) // =======================================================
(PID.TID 0000.0001) // Computational Grid Specification ( see files "SIZE.h" )
(PID.TID 0000.0001) //                                  ( and "eedata"       )
(PID.TID 0000.0001) // =======================================================
(PID.TID 0000.0001)      nPx =   24 ; /* No. processes in X */
(PID.TID 0000.0001)      nPy =    6 ; /* No. processes in Y */
(PID.TID 0000.0001)      nSx =    1 ; /* No. tiles in X per process */
(PID.TID 0000.0001)      nSy =    1 ; /* No. tiles in Y per process */
(PID.TID 0000.0001)      sNx =   90 ; /* Tile size in X */
(PID.TID 0000.0001)      sNy =   90 ; /* Tile size in Y */
(PID.TID 0000.0001)      OLx =    4 ; /* Tile overlap distance in X */
(PID.TID 0000.0001)      OLy =    4 ; /* Tile overlap distance in Y */
(PID.TID 0000.0001)      nTx =    1 ; /* No. threads in X per process */
(PID.TID 0000.0001)      nTy =    1 ; /* No. threads in Y per process */
(PID.TID 0000.0001)       Nr =  100 ; /* No. levels in the vertical   */
(PID.TID 0000.0001)       Nx = 2160 ; /* Total domain size in X ( = nPx*nSx*sNx ) */
(PID.TID 0000.0001)       Ny =  540 ; /* Total domain size in Y ( = nPy*nSy*sNy ) */
(PID.TID 0000.0001)   nTiles =    1 ; /* Total no. tiles per process ( = nSx*nSy ) */
(PID.TID 0000.0001)   nProcs =  144 ; /* Total no. processes ( = nPx*nPy ) */
(PID.TID 0000.0001) nThreads =    1 ; /* Total no. threads per process ( = nTx*nTy ) */
(PID.TID 0000.0001) usingMPI =    T ; /* Flag used to control whether MPI is in use */
(PID.TID 0000.0001)                   /*  note: To execute a program with MPI calls */
(PID.TID 0000.0001)                   /*  it must be launched appropriately e.g     */
(PID.TID 0000.0001)                   /*  "mpirun -np 64 ......"                    */
(PID.TID 0000.0001) useCoupler=    F ;/* Flag used to control communications with   */
(PID.TID 0000.0001)                   /*  other model components, through a coupler */
(PID.TID 0000.0001) debugMode =    F ; /* print debug msg. (sequence of S/R calls)  */
(PID.TID 0000.0001) printMapIncludesZeros=    F ; /* print zeros in Std.Output maps */
(PID.TID 0000.0001) maxLengthPrt1D=   65 /* maxLength of 1D array printed to StdOut */
(PID.TID 0000.0001) 
(PID.TID 0000.0001) ======= Starting MPI parallel Run =========
(PID.TID 0000.0001)  My Processor Name (len:  6 ) = r1i1n0
(PID.TID 0000.0001)  Located at (  0,  0) on processor grid (0: 23,0:  5)
(PID.TID 0000.0001)  Origin at  (     1,     1) on global grid (1:  2160,1:   540)
(PID.TID 0000.0001)  North neighbor = processor 0001
(PID.TID 0000.0001)  South neighbor = processor 0005
(PID.TID 0000.0001)   East neighbor = processor 0006
(PID.TID 0000.0001)   West neighbor = processor 0138
(PID.TID 0000.0001) // ======================================================
(PID.TID 0000.0001) // Mapping of tiles to threads
(PID.TID 0000.0001) // ======================================================
(PID.TID 0000.0001) // -o- Thread   1, tiles (   1:   1,   1:   1)
(PID.TID 0000.0001) 
(PID.TID 0000.0001) W2_READPARMS: opening data.exch2
(PID.TID 0000.0001)  OPEN_COPY_DATA_FILE: opening file data.exch2
(PID.TID 0000.0001) // =======================================================
(PID.TID 0000.0001) // Parameter file "data.exch2"
(PID.TID 0000.0001) // =======================================================
(PID.TID 0000.0001) ># EXCH2 Package: Wrapper-2 User Choice
(PID.TID 0000.0001) >#--------------------
(PID.TID 0000.0001) >#  preDefTopol   :: pre-defined Topology selector:
(PID.TID 0000.0001) >#                :: = 0 : topology defined from processing "data.exch2";
(PID.TID 0000.0001) >#                :: = 1 : simple, single facet topology;
(PID.TID 0000.0001) >#                :: = 2 : customized topology (w2_set_myown_facets)
(PID.TID 0000.0001) >#                :: = 3 : 6-facet Cube (3 face-dims: nRed, nGreen, nBlue).
(PID.TID 0000.0001) >#  dimsFacets    :: facet pair of dimensions (n1x,n1y, n2x,n2y ...)
(PID.TID 0000.0001) >#  facetEdgeLink :: Face-Edge connectivity map:
(PID.TID 0000.0001) >#    facetEdgeLink(i,j)=XX.1 : face(j)-edge(i) (i=1,2,3,4 <==> N,S,E,W)
(PID.TID 0000.0001) >#    is connected to Northern edge of face "XX" ; similarly,
(PID.TID 0000.0001) >#    = XX.2 : to Southern.E, XX.3 = Eastern.E, XX.4 = Western.E of face "XX"
(PID.TID 0000.0001) >#  blankList     :: List of "blank" tiles
(PID.TID 0000.0001) >#  W2_mapIO      :: global map IO selector (-1 = old type ; 0 = 1 long line in X
(PID.TID 0000.0001) >#                :: 1 = compact, mostly in Y dir)
(PID.TID 0000.0001) >#  W2_printMsg   :: option for information messages printing
(PID.TID 0000.0001) >#                :: <0 : write to log file ; =0 : minimum print ;
(PID.TID 0000.0001) >#                :: =1 : no duplicated print ; =2 : all processes do print
(PID.TID 0000.0001) >#--------------------
(PID.TID 0000.0001) > &W2_EXCH2_PARM01
(PID.TID 0000.0001) >  W2_printMsg= 0,
(PID.TID 0000.0001) >  W2_mapIO   = 1,
(PID.TID 0000.0001) >#
(PID.TID 0000.0001) >#-- 5 facets llc_270 topology (drop facet 6 and its connection):
(PID.TID 0000.0001) >  preDefTopol = 1,
(PID.TID 0000.0001) >  dimsFacets = 2160, 540,
(PID.TID 0000.0001) > &
(PID.TID 0000.0001) 
(PID.TID 0000.0001) W2_READPARMS: finished reading data.exch2
(PID.TID 0000.0001) W2_useE2ioLayOut=    T ;/* T: use Exch2 glob IO map; F: use model default */
(PID.TID 0000.0001) W2_mapIO        =   1 ; /* select option for Exch2 global-IO map */
(PID.TID 0000.0001) W2_printMsg     =   0 ; /* select option for printing information */
(PID.TID 0000.0001) ===== Start setting W2 TOPOLOGY:
(PID.TID 0000.0001) W2_E2SETUP: number of Active Tiles =     144
(PID.TID 0000.0001) W2_E2SETUP: number of Blank Tiles  =       0
(PID.TID 0000.0001) W2_E2SETUP: Total number of Tiles  =     144
(PID.TID 0000.0001) W2_SET_SINGLE_FACET: preDefTopol=  1 selected
(PID.TID 0000.0001) W2_E2SETUP: Total number of Facets =       1
(PID.TID 0000.0001) W2_SET_F2F_INDEX: index matrix for connected Facet-Edges:
(PID.TID 0000.0001) W2_SET_MAP_TILES: tile mapping within facet and global Map:
(PID.TID 0000.0001)  W2_mapIO = 2160 (=   24*sNx)
(PID.TID 0000.0001)  Global Map (IO): X-size=    2160 , Y-size=     540
(PID.TID 0000.0001) W2_SET_MAP_TILES: tile offset within facet and global Map:
- facet  1 : X-size=  2160 , Y-size=   540 ;  144 tiles (Tx,Ty=  24,   6)
(PID.TID 0000.0001) W2_SET_MAP_CUMSUM: setting Facet Matrix for CUMUL-SUM
 Facet Matrix for CUMUL-SUM (nFacets=   1, nActive=   1 ):
- facet  1 :  0  0 ,
(PID.TID 0000.0001) W2_SET_MAP_CUMSUM: done (skip Tile Matrix setting)
(PID.TID 0000.0001) W2_SET_TILE2TILES: tile neighbours and index connection:
(PID.TID 0000.0001) current Max.Nb.Neighbours (e.g., on tile    1 ) =  4
(PID.TID 0000.0001) ===== W2 TILE TOPOLOGY =====
(PID.TID 0000.0001)  TILE:     1 (bi,bj=   1   1 ), Nb of Neighbours =  4
(PID.TID 0000.0001)     NEIGHBOUR  1 = TILE   25 (n=  2) Comm = MSG (PROC=    2)
(PID.TID 0000.0001)     NEIGHBOUR  2 = TILE  121 (n=  1) Comm = MSG (PROC=    6)
(PID.TID 0000.0001)     NEIGHBOUR  3 = TILE    2 (n=  4) Comm = MSG (PROC=    7)
(PID.TID 0000.0001)     NEIGHBOUR  4 = TILE   24 (n=  3) Comm = MSG (PROC=  139)
(PID.TID 0000.0001) =====       setting W2 TOPOLOGY: Done
(PID.TID 0000.0001) 
(PID.TID 0000.0001)  INI_PARMS: opening model parameter file "data"
(PID.TID 0000.0001)  OPEN_COPY_DATA_FILE: opening file data
(PID.TID 0000.0001) // =======================================================
(PID.TID 0000.0001) // Parameter file "data"
(PID.TID 0000.0001) // =======================================================
(PID.TID 0000.0001) >### Data file with primary model parameters -----------------------------------
(PID.TID 0000.0001) >#
(PID.TID 0000.0001) >### Continuous equation parameters --------------------------------------------
(PID.TID 0000.0001) > &PARM01
(PID.TID 0000.0001) >## Reference temperatures and salinities for every vertical level.
(PID.TID 0000.0001) > tRef =  18.89, 18.89, 18.89, 18.89, 18.89, 18.87, 18.85, 18.82,
(PID.TID 0000.0001) >         18.80, 18.73, 18.63, 18.49, 18.28, 18.08, 17.86, 17.63,
(PID.TID 0000.0001) >         17.40, 17.18, 16.95, 16.73, 16.52, 16.31, 16.10, 15.89,
(PID.TID 0000.0001) >         15.69, 15.49, 15.28, 15.08, 14.88, 14.67, 14.47, 14.25,
(PID.TID 0000.0001) >         14.03, 13.80, 13.55, 13.29, 13.01, 12.73, 12.42, 12.11,
(PID.TID 0000.0001) >         11.78, 11.43, 11.07, 10.70, 10.31,  9.93,  9.53,  9.11,
(PID.TID 0000.0001) >          8.71,  8.29,  7.89,  7.51,  7.13,  6.78,  6.44,  6.11,
(PID.TID 0000.0001) >          5.81,  5.51,  5.23,  4.97,  4.73,  4.51,  4.30,  4.11,
(PID.TID 0000.0001) >          3.94,  3.78,  3.63,  3.50,  3.38,  3.25,  3.14,  3.04,
(PID.TID 0000.0001) >          2.94,  2.83,  2.74,  2.64,  2.54,  2.45,  2.36,  2.27,
(PID.TID 0000.0001) >          2.19,  2.10,  2.03,  1.95,  1.86,  1.78,  1.70,  1.63,
(PID.TID 0000.0001) >          1.55,  1.48,  1.41,  1.34,  1.27,  1.20,  1.13,  1.06,
(PID.TID 0000.0001) >          1.00,  0.96,  0.93,  0.91,
(PID.TID 0000.0001) > sRef =  34.84, 34.84, 34.84, 34.84, 34.84, 34.84, 34.85, 34.85,
(PID.TID 0000.0001) >         34.85, 34.86, 34.87, 34.88, 34.90, 34.91, 34.93, 34.95,
(PID.TID 0000.0001) >         34.96, 34.98, 34.99, 35.00, 35.01, 35.02, 35.03, 35.04,
(PID.TID 0000.0001) >         35.05, 35.06, 35.07, 35.07, 35.07, 35.07, 35.07, 35.07,
(PID.TID 0000.0001) >         35.07, 35.06, 35.05, 35.04, 35.03, 35.02, 35.01, 34.99,
(PID.TID 0000.0001) >         34.97, 34.95, 34.92, 34.90, 34.87, 34.84, 34.81, 34.78,
(PID.TID 0000.0001) >         34.75, 34.72, 34.69, 34.67, 34.65, 34.62, 34.61, 34.60,
(PID.TID 0000.0001) >         34.59, 34.59, 34.58, 34.59, 34.59, 34.60, 34.60, 34.61,
(PID.TID 0000.0001) >         34.62, 34.63, 34.64, 34.65, 34.66, 34.67, 34.67, 34.68,
(PID.TID 0000.0001) >         34.69, 34.70, 34.71, 34.71, 34.72, 34.72, 34.73, 34.73,
(PID.TID 0000.0001) >         34.73, 34.74, 34.74, 34.74, 34.74, 34.75, 34.74, 34.74,
(PID.TID 0000.0001) >         34.74, 34.74, 34.74, 34.74, 34.74, 34.74, 34.73, 34.73,
(PID.TID 0000.0001) >         34.73, 34.73, 34.73, 34.73,
(PID.TID 0000.0001) > rhonil        = 1029.,
(PID.TID 0000.0001) > rhoConstFresh = 1000.,
(PID.TID 0000.0001) > eosType = 'JMD95Z',
(PID.TID 0000.0001) >#
(PID.TID 0000.0001) >## Various prescriptions for viscosity and diffusivity.
(PID.TID 0000.0001) > viscAr     = 5.e-04,
(PID.TID 0000.0001) > viscA4Grid = 0.0,
(PID.TID 0000.0001) > diffKhT    = 0.E0,
(PID.TID 0000.0001) > diffKhS    = 0.E0,
(PID.TID 0000.0001) > diffK4T    = 0.E10,
(PID.TID 0000.0001) > diffK4S    = 0.E10,
(PID.TID 0000.0001) > diffKrT    = 1.0e-5,
(PID.TID 0000.0001) > diffKrS    = 1.0e-5,
(PID.TID 0000.0001) > bottomDragQuadratic = 0.002,
(PID.TID 0000.0001) > no_slip_sides     = .TRUE.,
(PID.TID 0000.0001) > no_slip_bottom    = .TRUE.,
(PID.TID 0000.0001) > implicitDiffusion = .TRUE.,
(PID.TID 0000.0001) > implicitViscosity = .TRUE.,
(PID.TID 0000.0001) ># horizontal momentum closure
(PID.TID 0000.0001) > viscC4Leith   = 2.0,
(PID.TID 0000.0001) > viscC4Leithd  = 2.0,
(PID.TID 0000.0001) > viscA4GridMax = 0.8,
(PID.TID 0000.0001) >#
(PID.TID 0000.0001) >## Parameters that control numerical methods like advection schemes and
(PID.TID 0000.0001) >#  treatment of the free-surface.
(PID.TID 0000.0001) > tempAdvScheme = 7,
(PID.TID 0000.0001) > saltAdvScheme = 7,
(PID.TID 0000.0001) > implicitFreeSurface     = .TRUE.,
(PID.TID 0000.0001) > staggerTimeStep         = .TRUE.,
(PID.TID 0000.0001) > exactConserv            = .TRUE.,
(PID.TID 0000.0001) > vectorInvariantMomentum = .TRUE.,
(PID.TID 0000.0001) > useAreaViscLength       = .TRUE.,
(PID.TID 0000.0001) > highOrderVorticity      = .TRUE.,
(PID.TID 0000.0001) > multiDimAdvection       = .TRUE.,
(PID.TID 0000.0001) >#
(PID.TID 0000.0001) >## These parameters seem to be associated with the external forcing.
(PID.TID 0000.0001) > convertFW2Salt = -1.,
(PID.TID 0000.0001) > temp_EvPrRn    =  0.,
(PID.TID 0000.0001) > useRealFreshWaterFlux = .FALSE.,
(PID.TID 0000.0001) > allowFreezing         = .FALSE.,
(PID.TID 0000.0001) >#
(PID.TID 0000.0001) >## Parameters associated with bathymetry specification.
(PID.TID 0000.0001) > hFacMin   = 0.2,
(PID.TID 0000.0001) > hFacMinDr = 5.,
(PID.TID 0000.0001) >#
(PID.TID 0000.0001) >## Parameters for reading, writing, and misc numerical details.
(PID.TID 0000.0001) > globalFiles     = .TRUE.,
(PID.TID 0000.0001) > useSingleCpuIO  = .TRUE.,
(PID.TID 0000.0001) > readBinaryPrec  = 32,
(PID.TID 0000.0001) > writeBinaryPrec = 32,
(PID.TID 0000.0001) > debuglevel      = 2,
(PID.TID 0000.0001) >#
(PID.TID 0000.0001) >## Unused parameters.
(PID.TID 0000.0001) ># gravity = 9.81,
(PID.TID 0000.0001) ># viscA4Grid = 2.0E-3,
(PID.TID 0000.0001) ># viscAhGrid = 2.5E-4,
(PID.TID 0000.0001) ># bottomDraglinear    = 1.E-3,
(PID.TID 0000.0001) ># Note: nonlinFreeSurf=1 with rStar=0 breaks the code.
(PID.TID 0000.0001) ># nonlinFreeSurf = 4,
(PID.TID 0000.0001) ># select_rStar   = 1,
(PID.TID 0000.0001) ># hFacInf   = 0.1,
(PID.TID 0000.0001) ># hFacSup   = 5.,
(PID.TID 0000.0001) ># implicSurfPress = 0.6,
(PID.TID 0000.0001) ># implicDiv2DFlow = 0.6,
(PID.TID 0000.0001) ># useSingleCpuInput = .TRUE.,
(PID.TID 0000.0001) ># set to eccov4, make sure minbathy=20m first
(PID.TID 0000.0001) ># debuglevel = -1,
(PID.TID 0000.0001) ># useJamartWetPoints = .TRUE.,
(PID.TID 0000.0001) ># writeBinaryPrec=64,
(PID.TID 0000.0001) > /
(PID.TID 0000.0001) >### Elliptic solver parameters ------------------------------------------------
(PID.TID 0000.0001) > &PARM02
(PID.TID 0000.0001) > cg2dMaxIters       = 1000,
(PID.TID 0000.0001) ># cg2dTargetResidual = 1.E-8,
(PID.TID 0000.0001) > cg2dTargetResWunit = 1e-18,
(PID.TID 0000.0001) >#
(PID.TID 0000.0001) >#cg2dMaxIters       = 100,
(PID.TID 0000.0001) >#cg2dTargetResidual = 1.E-5,
(PID.TID 0000.0001) > &
(PID.TID 0000.0001) >### Time stepping parameters --------------------------------------------------
(PID.TID 0000.0001) > &PARM03
(PID.TID 0000.0001) > deltaT      =    240.,
(PID.TID 0000.0001) > nIter0      =  0,
(PID.TID 0000.0001) > nTimeSteps  =  15,
(PID.TID 0000.0001) > pChkptFreq  = 864000.,
(PID.TID 0000.0001) > monitorFreq =   240.,
(PID.TID 0000.0001) > abEps       = 0.1,
(PID.TID 0000.0001) >## It is unclear what these specify.
(PID.TID 0000.0001) > pickupStrictlyMatch = .FALSE.,
(PID.TID 0000.0001) > forcing_In_AB       = .FALSE.,
(PID.TID 0000.0001) > momDissip_In_AB     = .FALSE.,
(PID.TID 0000.0001) > dumpInitAndLast     = .FALSE.,
(PID.TID 0000.0001) > /
(PID.TID 0000.0001) >### Gridding parameters -------------------------------------------------------
(PID.TID 0000.0001) > &PARM04
(PID.TID 0000.0001) > usingSphericalPolarGrid=.TRUE.,
(PID.TID 0000.0001) >## Specify the height of each vertical level.
(PID.TID 0000.0001) > delR =   5.00,   5.00,   5.00,   5.00,   5.00,   5.00,   5.00,   5.00,   5.00,
(PID.TID 0000.0001) >          5.00,   5.00,   5.00,   5.00,   5.00,   5.00,   5.01,   5.01,   5.02,
(PID.TID 0000.0001) >          5.04,   5.07,   5.12,   5.20,   5.31,   5.49,   5.72,   6.04,   6.45,
(PID.TID 0000.0001) >          6.97,   7.62,   8.42,   9.36,  10.46,  11.72,  13.13,  14.70,  16.40,
(PID.TID 0000.0001) >         18.24,  20.18,  22.21,  24.29,  26.43,  28.57,  30.71,  32.79,  34.82,
(PID.TID 0000.0001) >         36.76,  38.60,  40.30,  41.87,  43.28,  44.54,  45.64,  46.58,  47.38,
(PID.TID 0000.0001) >         48.03,  48.55,  48.96,  49.29,  49.53,  49.72,  49.90,  50.11,  50.41,
(PID.TID 0000.0001) >         50.92,  51.69,  52.87,  54.54,  56.79,  59.67,  63.16,  67.26,  71.83,
(PID.TID 0000.0001) >         76.83,  82.11,  87.61,  93.22,  98.91, 104.64, 110.38, 116.12, 121.87,
(PID.TID 0000.0001) >        127.63, 133.38, 139.12, 144.87, 150.63, 156.38, 162.12, 167.87, 173.63,
(PID.TID 0000.0001) >        179.38, 185.12, 190.87, 196.63, 202.38, 208.12, 213.87, 219.63, 225.38,
(PID.TID 0000.0001) >        231.12,
(PID.TID 0000.0001) > xgOrigin=-83.,
(PID.TID 0000.0001) > dxSpacing=0.041666666666667,
(PID.TID 0000.0001) > ygOrigin=26.650054931640625,
(PID.TID 0000.0001) > delYFile = 'delYFile',
(PID.TID 0000.0001) > /
(PID.TID 0000.0001) ># -----------------------------------------------------------------------------
(PID.TID 0000.0001) >### Bathymetry files and initial condition files
(PID.TID 0000.0001) > &PARM05
(PID.TID 0000.0001) > bathyFile       = 'bathy.bin',
(PID.TID 0000.0001) > hydrogThetaFile = 'T0_2160x540x100.bin',
(PID.TID 0000.0001) > hydrogSaltFile  = 'S0_2160x540x100.bin',
(PID.TID 0000.0001) > uVelInitFile    = 'U0_2160x540x100.bin',
(PID.TID 0000.0001) > vVelInitFile    = 'V0_2160x540x100.bin',
(PID.TID 0000.0001) ># diffKrFile  = 'diffkr_basin_v1m9EfC_llc1080.bin',
(PID.TID 0000.0001) ># viscA4Dfile = 'visc3DblendfromrunobcsCdiv1e6_08Mar2016_aste2160.bin',
(PID.TID 0000.0001) ># viscA4Zfile = 'visc3DblendfromrunobcsCdiv1e6_08Mar2016_aste2160.bin',
(PID.TID 0000.0001) > /
(PID.TID 0000.0001) 
(PID.TID 0000.0001)  INI_PARMS ; starts to read PARM01
(PID.TID 0000.0001)  INI_PARMS ; read PARM01 : OK
(PID.TID 0000.0001)  INI_PARMS ; starts to read PARM02
(PID.TID 0000.0001)  INI_PARMS ; read PARM02 : OK
(PID.TID 0000.0001)  INI_PARMS ; starts to read PARM03
(PID.TID 0000.0001)  INI_PARMS ; read PARM03 : OK
(PID.TID 0000.0001)  INI_PARMS ; starts to read PARM04
(PID.TID 0000.0001)  INI_PARMS ; read PARM04 : OK
(PID.TID 0000.0001)  INI_PARMS ; starts to read PARM05
(PID.TID 0000.0001)  INI_PARMS ; read PARM05 : OK
(PID.TID 0000.0001)  INI_PARMS: finished reading file "data"
(PID.TID 0000.0001)  PACKAGES_BOOT: opening data.pkg
(PID.TID 0000.0001)  OPEN_COPY_DATA_FILE: opening file data.pkg
(PID.TID 0000.0001) // =======================================================
(PID.TID 0000.0001) // Parameter file "data.pkg"
(PID.TID 0000.0001) // =======================================================
(PID.TID 0000.0001) ># Packages
(PID.TID 0000.0001) > &PACKAGES
(PID.TID 0000.0001) > useCAL         = .TRUE.,
(PID.TID 0000.0001) > useEXF         = .TRUE.,
(PID.TID 0000.0001) > useKPP         = .TRUE.,
(PID.TID 0000.0001) > useDiagnostics = .TRUE.,
(PID.TID 0000.0001) > useOBCS        = .TRUE.,
(PID.TID 0000.0001) ># useProfiles=.TRUE.,
(PID.TID 0000.0001) > /
(PID.TID 0000.0001) 
(PID.TID 0000.0001)  PACKAGES_BOOT: finished reading data.pkg
(PID.TID 0000.0001)  PACKAGES_BOOT: On/Off package Summary
 --------  pkgs with a standard "usePKG" On/Off switch in "data.pkg":  --------
 pkg/obcs                 compiled   and   used ( useOBCS                  = T )
 pkg/kpp                  compiled   and   used ( useKPP                   = T )
 pkg/cal                  compiled   and   used ( useCAL                   = T )
 pkg/exf                  compiled   and   used ( useEXF                   = T )
 pkg/diagnostics          compiled   and   used ( useDiagnostics           = T )
 -------- pkgs without standard "usePKG" On/Off switch in "data.pkg":  --------
 pkg/generic_advdiff      compiled   and   used ( useGAD                   = T )
 pkg/mom_common           compiled   and   used ( momStepping              = T )
 pkg/mom_vecinv           compiled   and   used ( +vectorInvariantMomentum = T )
 pkg/monitor              compiled   and   used ( monitorFreq > 0.         = T )
 pkg/debug                compiled but not used ( debugMode                = F )
 pkg/exch2                compiled   and   used
 pkg/rw                   compiled   and   used
 pkg/mdsio                compiled   and   used
(PID.TID 0000.0001)  PACKAGES_BOOT: End of package Summary
(PID.TID 0000.0001) 
(PID.TID 0000.0001) CAL_READPARMS: opening data.cal
(PID.TID 0000.0001)  OPEN_COPY_DATA_FILE: opening file data.cal
(PID.TID 0000.0001) // =======================================================
(PID.TID 0000.0001) // Parameter file "data.cal"
(PID.TID 0000.0001) // =======================================================
(PID.TID 0000.0001) >#
(PID.TID 0000.0001) ># *******************
(PID.TID 0000.0001) ># Calendar Parameters
(PID.TID 0000.0001) ># *******************
(PID.TID 0000.0001) > &CAL_NML
(PID.TID 0000.0001) > TheCalendar='gregorian',
(PID.TID 0000.0001) > startDate_1=20080101,
(PID.TID 0000.0001) > startDate_2=000000,
(PID.TID 0000.0001) > calendarDumps = .TRUE.,
(PID.TID 0000.0001) > &
(PID.TID 0000.0001) 
(PID.TID 0000.0001) CAL_READPARMS: finished reading data.cal
(PID.TID 0000.0001) EXF_READPARMS: opening data.exf
(PID.TID 0000.0001)  OPEN_COPY_DATA_FILE: opening file data.exf
(PID.TID 0000.0001) // =======================================================
(PID.TID 0000.0001) // Parameter file "data.exf"
(PID.TID 0000.0001) // =======================================================
(PID.TID 0000.0001) ># *********************
(PID.TID 0000.0001) ># External Forcing Data
(PID.TID 0000.0001) ># *********************
(PID.TID 0000.0001) >#
(PID.TID 0000.0001) > &EXF_NML_01
(PID.TID 0000.0001) >#
(PID.TID 0000.0001) > useAtmWind        = .TRUE.,
(PID.TID 0000.0001) >#
(PID.TID 0000.0001) >#TO COMBINE WITH ALLOW_ZENITH_ANGLE:
(PID.TID 0000.0001) > exf_albedo        = 0.1,
(PID.TID 0000.0001) > useExfZenIncoming = .TRUE.,
(PID.TID 0000.0001) > select_ZenAlbedo  = 1,
(PID.TID 0000.0001) >#
(PID.TID 0000.0001) > ocean_emissivity  = 0.97,
(PID.TID 0000.0001) > ice_emissivity    = 0.95,
(PID.TID 0000.0001) > snow_emissivity   = 0.95,
(PID.TID 0000.0001) > exf_iprec         = 32,
(PID.TID 0000.0001) > exf_iprec_obcs    = 32,
(PID.TID 0000.0001) > exf_yftype        = 'RL',
(PID.TID 0000.0001) > useExfYearlyFields= .TRUE.,
(PID.TID 0000.0001) > useExfCheckRange  = .FALSE.,
(PID.TID 0000.0001) > useRelativeWind   = .TRUE.,
(PID.TID 0000.0001) > &
(PID.TID 0000.0001) >#
(PID.TID 0000.0001) > &EXF_NML_02
(PID.TID 0000.0001) > apressurefile     = 'era5/ERA5_pres',
(PID.TID 0000.0001) > atempfile         = 'era5/ERA5_tmp2m_degC',
(PID.TID 0000.0001) > aqhfile           = 'era5/ERA5_spfh2m',
(PID.TID 0000.0001) > precipfile        = 'era5/ERA5_rain',
(PID.TID 0000.0001) > uwindfile         = 'era5/ERA5_u10m',
(PID.TID 0000.0001) > vwindfile         = 'era5/ERA5_v10m',
(PID.TID 0000.0001) > swdownfile        = 'era5/ERA5_dsw',
(PID.TID 0000.0001) > lwdownfile        = 'era5/ERA5_dlw',
(PID.TID 0000.0001) > tidePotfile       = 'tide',
(PID.TID 0000.0001) > runofffile        = 'runoff1p2472-360x180x12.bin',
(PID.TID 0000.0001) >#
(PID.TID 0000.0001) > apressurestartdate1 = 19920101,
(PID.TID 0000.0001) > apressurestartdate2 = 000000,
(PID.TID 0000.0001) > apressureperiod   = 3600.0,
(PID.TID 0000.0001) >#
(PID.TID 0000.0001) > atempstartdate1   = 19920101,
(PID.TID 0000.0001) > atempstartdate2   = 000000,
(PID.TID 0000.0001) > atempperiod       = 3600.0,
(PID.TID 0000.0001) >#
(PID.TID 0000.0001) > aqhstartdate1     = 19920101,
(PID.TID 0000.0001) > aqhstartdate2     = 000000,
(PID.TID 0000.0001) > aqhperiod         = 3600.0,
(PID.TID 0000.0001) >#
(PID.TID 0000.0001) > precipstartdate1  = 19920101,
(PID.TID 0000.0001) > precipstartdate2  = 003000,
(PID.TID 0000.0001) > precipperiod      = 3600.0,
(PID.TID 0000.0001) >#
(PID.TID 0000.0001) > uwindstartdate1   = 19920101,
(PID.TID 0000.0001) > uwindstartdate2   = 000000,
(PID.TID 0000.0001) > uwindperiod       = 3600.0,
(PID.TID 0000.0001) >#
(PID.TID 0000.0001) > vwindstartdate1   = 19920101,
(PID.TID 0000.0001) > vwindstartdate2   = 000000,
(PID.TID 0000.0001) > vwindperiod       = 3600.0,
(PID.TID 0000.0001) >#
(PID.TID 0000.0001) > swdownstartdate1  = 19920101,
(PID.TID 0000.0001) > swdownstartdate2  = 003000,
(PID.TID 0000.0001) > swdownperiod      = 3600.0,
(PID.TID 0000.0001) >#
(PID.TID 0000.0001) > lwdownstartdate1  = 19920101,
(PID.TID 0000.0001) > lwdownstartdate2  = 003000,
(PID.TID 0000.0001) > lwdownperiod      = 3600.0,
(PID.TID 0000.0001) > tidePotstartdate1  = 19790101,
(PID.TID 0000.0001) > tidePotstartdate2  = 000000,
(PID.TID 0000.0001) > tidePotperiod      = 3600.0,
(PID.TID 0000.0001) ># "*period=-12" specifies monthly-mean forcing
(PID.TID 0000.0001) > runoffperiod      = -12,
(PID.TID 0000.0001) > &
(PID.TID 0000.0001) >#
(PID.TID 0000.0001) > &EXF_NML_03
(PID.TID 0000.0001) > exf_offset_atemp   = 273.15,
(PID.TID 0000.0001) > exf_inscal_swdown  = -1.0,
(PID.TID 0000.0001) > exf_inscal_lwdown  = -1.0,
(PID.TID 0000.0001) ># 1/365/24/3600 yr/s conversion, runoff [m/yr --> m/s]
(PID.TID 0000.0001) > exf_inscal_runoff = 3.1710e-08,
(PID.TID 0000.0001) > &
(PID.TID 0000.0001) >#
(PID.TID 0000.0001) > &EXF_NML_04
(PID.TID 0000.0001) ># runoff_interpMethod = 0,
(PID.TID 0000.0001) >#
(PID.TID 0000.0001) > apressure_lon0    =   0.0000000D0,
(PID.TID 0000.0001) > apressure_lon_inc =   0.2812500D0,
(PID.TID 0000.0001) > apressure_lat0    = -89.7848850D0,
(PID.TID 0000.0001) > apressure_lat_inc = 0.2786766D0,0.2803199D0,0.2806917D0,0.2808328D0,0.2809011D0,0.2809392D0,0.2809626D0,0.2809781D0,
(PID.TID 0000.0001) >                     0.2809888D0,0.2809965D0,0.2810023D0,0.2810067D0,0.2810102D0,0.2810129D0,0.2810151D0,
(PID.TID 0000.0001) >                     33*0.2810258D0,543*0.2810302D0,33*0.2810258D0,
(PID.TID 0000.0001) >                     0.2810151D0,0.2810129D0,0.2810102D0,0.2810067D0,0.2810023D0,0.2809965D0,0.2809888D0,0.2809781D0,
(PID.TID 0000.0001) >                     0.2809626D0,0.2809392D0,0.2809011D0,0.2808328D0,0.2806917D0,0.2803199D0,0.2786766D0,
(PID.TID 0000.0001) > apressure_nlon    = 1280,
(PID.TID 0000.0001) > apressure_nlat    = 640,
(PID.TID 0000.0001) >#
(PID.TID 0000.0001) > atemp_lon0        =   0.0000000D0,
(PID.TID 0000.0001) > atemp_lon_inc     =   0.2812500D0,
(PID.TID 0000.0001) > atemp_lat0        = -89.7848850D0,
(PID.TID 0000.0001) > atemp_lat_inc     = 0.2786766D0,0.2803199D0,0.2806917D0,0.2808328D0,0.2809011D0,0.2809392D0,0.2809626D0,0.2809781D0,
(PID.TID 0000.0001) >                     0.2809888D0,0.2809965D0,0.2810023D0,0.2810067D0,0.2810102D0,0.2810129D0,0.2810151D0,
(PID.TID 0000.0001) >                     33*0.2810258D0,543*0.2810302D0,33*0.2810258D0,
(PID.TID 0000.0001) >                     0.2810151D0,0.2810129D0,0.2810102D0,0.2810067D0,0.2810023D0,0.2809965D0,0.2809888D0,0.2809781D0,
(PID.TID 0000.0001) >                     0.2809626D0,0.2809392D0,0.2809011D0,0.2808328D0,0.2806917D0,0.2803199D0,0.2786766D0,
(PID.TID 0000.0001) > atemp_nlon        = 1280,
(PID.TID 0000.0001) > atemp_nlat        = 640,
(PID.TID 0000.0001) >#
(PID.TID 0000.0001) > aqh_lon0        =   0.0000000D0,
(PID.TID 0000.0001) > aqh_lon_inc     =   0.2812500D0,
(PID.TID 0000.0001) > aqh_lat0        = -89.7848850D0,
(PID.TID 0000.0001) > aqh_lat_inc     = 0.2786766D0,0.2803199D0,0.2806917D0,0.2808328D0,0.2809011D0,0.2809392D0,0.2809626D0,0.2809781D0,
(PID.TID 0000.0001) >                     0.2809888D0,0.2809965D0,0.2810023D0,0.2810067D0,0.2810102D0,0.2810129D0,0.2810151D0,
(PID.TID 0000.0001) >                     33*0.2810258D0,543*0.2810302D0,33*0.2810258D0,
(PID.TID 0000.0001) >                     0.2810151D0,0.2810129D0,0.2810102D0,0.2810067D0,0.2810023D0,0.2809965D0,0.2809888D0,0.2809781D0,
(PID.TID 0000.0001) >                     0.2809626D0,0.2809392D0,0.2809011D0,0.2808328D0,0.2806917D0,0.2803199D0,0.2786766D0,
(PID.TID 0000.0001) > aqh_nlon        = 1280,
(PID.TID 0000.0001) > aqh_nlat        = 640,
(PID.TID 0000.0001) >#
(PID.TID 0000.0001) > precip_lon0        =   0.0000000D0,
(PID.TID 0000.0001) > precip_lon_inc     =   0.2812500D0,
(PID.TID 0000.0001) > precip_lat0        = -89.7848850D0,
(PID.TID 0000.0001) > precip_lat_inc     = 0.2786766D0,0.2803199D0,0.2806917D0,0.2808328D0,0.2809011D0,0.2809392D0,0.2809626D0,0.2809781D0,
(PID.TID 0000.0001) >                     0.2809888D0,0.2809965D0,0.2810023D0,0.2810067D0,0.2810102D0,0.2810129D0,0.2810151D0,
(PID.TID 0000.0001) >                     33*0.2810258D0,543*0.2810302D0,33*0.2810258D0,
(PID.TID 0000.0001) >                     0.2810151D0,0.2810129D0,0.2810102D0,0.2810067D0,0.2810023D0,0.2809965D0,0.2809888D0,0.2809781D0,
(PID.TID 0000.0001) >                     0.2809626D0,0.2809392D0,0.2809011D0,0.2808328D0,0.2806917D0,0.2803199D0,0.2786766D0,
(PID.TID 0000.0001) > precip_nlon        = 1280,
(PID.TID 0000.0001) > precip_nlat        = 640,
(PID.TID 0000.0001) >#
(PID.TID 0000.0001) > uwind_lon0        =   0.0000000D0,
(PID.TID 0000.0001) > uwind_lon_inc     =   0.2812500D0,
(PID.TID 0000.0001) > uwind_lat0        = -89.7848850D0,
(PID.TID 0000.0001) > uwind_lat_inc     = 0.2786766D0,0.2803199D0,0.2806917D0,0.2808328D0,0.2809011D0,0.2809392D0,0.2809626D0,0.2809781D0,
(PID.TID 0000.0001) >                     0.2809888D0,0.2809965D0,0.2810023D0,0.2810067D0,0.2810102D0,0.2810129D0,0.2810151D0,
(PID.TID 0000.0001) >                     33*0.2810258D0,543*0.2810302D0,33*0.2810258D0,
(PID.TID 0000.0001) >                     0.2810151D0,0.2810129D0,0.2810102D0,0.2810067D0,0.2810023D0,0.2809965D0,0.2809888D0,0.2809781D0,
(PID.TID 0000.0001) >                     0.2809626D0,0.2809392D0,0.2809011D0,0.2808328D0,0.2806917D0,0.2803199D0,0.2786766D0,
(PID.TID 0000.0001) > uwind_nlon        = 1280,
(PID.TID 0000.0001) > uwind_nlat        = 640,
(PID.TID 0000.0001) >#
(PID.TID 0000.0001) > vwind_lon0        =   0.0000000D0,
(PID.TID 0000.0001) > vwind_lon_inc     =   0.2812500D0,
(PID.TID 0000.0001) > vwind_lat0        = -89.7848850D0,
(PID.TID 0000.0001) > vwind_lat_inc     = 0.2786766D0,0.2803199D0,0.2806917D0,0.2808328D0,0.2809011D0,0.2809392D0,0.2809626D0,0.2809781D0,
(PID.TID 0000.0001) >                     0.2809888D0,0.2809965D0,0.2810023D0,0.2810067D0,0.2810102D0,0.2810129D0,0.2810151D0,
(PID.TID 0000.0001) >                     33*0.2810258D0,543*0.2810302D0,33*0.2810258D0,
(PID.TID 0000.0001) >                     0.2810151D0,0.2810129D0,0.2810102D0,0.2810067D0,0.2810023D0,0.2809965D0,0.2809888D0,0.2809781D0,
(PID.TID 0000.0001) >                     0.2809626D0,0.2809392D0,0.2809011D0,0.2808328D0,0.2806917D0,0.2803199D0,0.2786766D0,
(PID.TID 0000.0001) > vwind_nlon        = 1280,
(PID.TID 0000.0001) > vwind_nlat        = 640,
(PID.TID 0000.0001) >#
(PID.TID 0000.0001) > swdown_lon0        =   0.0000000D0,
(PID.TID 0000.0001) > swdown_lon_inc     =   0.2812500D0,
(PID.TID 0000.0001) > swdown_lat0        = -89.7848850D0,
(PID.TID 0000.0001) > swdown_lat_inc     = 0.2786766D0,0.2803199D0,0.2806917D0,0.2808328D0,0.2809011D0,0.2809392D0,0.2809626D0,0.2809781D0,
(PID.TID 0000.0001) >                     0.2809888D0,0.2809965D0,0.2810023D0,0.2810067D0,0.2810102D0,0.2810129D0,0.2810151D0,
(PID.TID 0000.0001) >                     33*0.2810258D0,543*0.2810302D0,33*0.2810258D0,
(PID.TID 0000.0001) >                     0.2810151D0,0.2810129D0,0.2810102D0,0.2810067D0,0.2810023D0,0.2809965D0,0.2809888D0,0.2809781D0,
(PID.TID 0000.0001) >                     0.2809626D0,0.2809392D0,0.2809011D0,0.2808328D0,0.2806917D0,0.2803199D0,0.2786766D0,
(PID.TID 0000.0001) > swdown_nlon        = 1280,
(PID.TID 0000.0001) > swdown_nlat        = 640,
(PID.TID 0000.0001) >#
(PID.TID 0000.0001) > lwdown_lon0        =   0.0000000D0,
(PID.TID 0000.0001) > lwdown_lon_inc     =   0.2812500D0,
(PID.TID 0000.0001) > lwdown_lat0        = -89.7848850D0,
(PID.TID 0000.0001) > lwdown_lat_inc     = 0.2786766D0,0.2803199D0,0.2806917D0,0.2808328D0,0.2809011D0,0.2809392D0,0.2809626D0,0.2809781D0,
(PID.TID 0000.0001) >                     0.2809888D0,0.2809965D0,0.2810023D0,0.2810067D0,0.2810102D0,0.2810129D0,0.2810151D0,
(PID.TID 0000.0001) >                     33*0.2810258D0,543*0.2810302D0,33*0.2810258D0,
(PID.TID 0000.0001) >                     0.2810151D0,0.2810129D0,0.2810102D0,0.2810067D0,0.2810023D0,0.2809965D0,0.2809888D0,0.2809781D0,
(PID.TID 0000.0001) >                     0.2809626D0,0.2809392D0,0.2809011D0,0.2808328D0,0.2806917D0,0.2803199D0,0.2786766D0,
(PID.TID 0000.0001) > lwdown_nlon        = 1280,
(PID.TID 0000.0001) > lwdown_nlat        = 640,
(PID.TID 0000.0001) >#
(PID.TID 0000.0001) > tidePot_lon0       = 0.0D0,
(PID.TID 0000.0001) > tidePot_lon_inc    = 1.0D0,
(PID.TID 0000.0001) > tidePot_lat0       = -90.0D0,
(PID.TID 0000.0001) > tidePot_lat_inc    = 180*1.0D0,
(PID.TID 0000.0001) > tidePot_nlon       = 360,
(PID.TID 0000.0001) > tidePot_nlat       = 181,
(PID.TID 0000.0001) >#
(PID.TID 0000.0001) > runoff_lon0       = 0.50D0,
(PID.TID 0000.0001) > runoff_lon_inc    = 1.0D0,
(PID.TID 0000.0001) > runoff_lat0       = -89.5D0,
(PID.TID 0000.0001) > runoff_lat_inc    = 179*1.,
(PID.TID 0000.0001) > runoff_nlon       = 360,
(PID.TID 0000.0001) > runoff_nlat       = 180,
(PID.TID 0000.0001) > &
(PID.TID 0000.0001) >#
(PID.TID 0000.0001) > &EXF_NML_OBCS
(PID.TID 0000.0001) >  obcsSstartdate1   = 20071215,
(PID.TID 0000.0001) >  obcsSstartdate2   = 060000,
(PID.TID 0000.0001) >  obcsSperiod       = 2629800.0,
(PID.TID 0000.0001) >#
(PID.TID 0000.0001) >  obcsNstartdate1   = 20071215,
(PID.TID 0000.0001) >  obcsNstartdate2   = 060000,
(PID.TID 0000.0001) >  obcsNperiod       = 2629800.0,
(PID.TID 0000.0001) > &
(PID.TID 0000.0001) 
(PID.TID 0000.0001) EXF_READPARMS: reading EXF_NML_01
(PID.TID 0000.0001) EXF_READPARMS: reading EXF_NML_02
(PID.TID 0000.0001) EXF_READPARMS: reading EXF_NML_03
(PID.TID 0000.0001) EXF_READPARMS: reading EXF_NML_04
(PID.TID 0000.0001) EXF_READPARMS: reading EXF_NML_OBCS
(PID.TID 0000.0001) EXF_READPARMS: finished reading data.exf
(PID.TID 0000.0001)  OBCS_READPARMS: opening data.obcs
(PID.TID 0000.0001)  OPEN_COPY_DATA_FILE: opening file data.obcs
(PID.TID 0000.0001) // =======================================================
(PID.TID 0000.0001) // Parameter file "data.obcs"
(PID.TID 0000.0001) // =======================================================
(PID.TID 0000.0001) ># ***************
(PID.TID 0000.0001) ># Open boundaries
(PID.TID 0000.0001) ># ***************
(PID.TID 0000.0001) > &OBCS_PARM01
(PID.TID 0000.0001) >OB_Jnorth = 2160*537,
(PID.TID 0000.0001) >OB_Jsouth = 2160*8,
(PID.TID 0000.0001) >#
(PID.TID 0000.0001) > useOBCSprescribe=.TRUE.,
(PID.TID 0000.0001) ># useOBCSsponge=.true.,
(PID.TID 0000.0001) > OBCS_monSelect = 3,
(PID.TID 0000.0001) ># >0: use 1rst O. upwind adv-scheme @ OB (=1: only if outflow)
(PID.TID 0000.0001) > OBCS_u1_adv_T = 1,
(PID.TID 0000.0001) > OBCS_u1_adv_S = 1,
(PID.TID 0000.0001) >#
(PID.TID 0000.0001) > OBSsFile='OBSs_2160x100x26.bin',
(PID.TID 0000.0001) > OBStFile='OBSt_2160x100x26.bin',
(PID.TID 0000.0001) > OBSuFile='OBSu_2160x100x26.bin',
(PID.TID 0000.0001) > OBSvFile='OBSv_2160x100x26.bin',
(PID.TID 0000.0001) >#
(PID.TID 0000.0001) > OBNsFile='OBNs_2160x100x26.bin',
(PID.TID 0000.0001) > OBNtFile='OBNt_2160x100x26.bin',
(PID.TID 0000.0001) > OBNuFile='OBNu_2160x100x26.bin',
(PID.TID 0000.0001) > OBNvFile='OBNv_2160x100x26.bin',
(PID.TID 0000.0001) ># Balancing
(PID.TID 0000.0001) > useOBCSbalance = .TRUE.,
(PID.TID 0000.0001) > OBCS_balanceFacN = -1,
(PID.TID 0000.0001) > OBCS_balanceFacS = -1,
(PID.TID 0000.0001) >## *****************************************
(PID.TID 0000.0001) >## Tidal BC parameters
(PID.TID 0000.0001) >## *****************************************
(PID.TID 0000.0001) > useOBCStides = .TRUE.,
(PID.TID 0000.0001) >##components   = M2       S2     N2       K2       K1      O1       P1       Q1       Mf         Mm
(PID.TID 0000.0001) >##periods (hr) = 12.4206  12     12.6583  11.9672  23.9345 25.8193  24.0659  26.8684  327.8599   661.31
(PID.TID 0000.0001) >##period(sec)  = 44714.165 43200.001 45570.054 43082.05 86164.077 92949.636 86637.2 96726.086 1180295.5 2380715.9
(PID.TID 0000.0001) >##components      m2        s2        n2        k2        k1        o1        p1        q1        mf        mm        m4        ms4       mn4
(PID.TID 0000.0001) >##period (hr): 12.420601 12.000000 12.658348 11.967236 23.934466 25.819343 24.065889 26.868357 327.859874 661.309962 6.210303 6.103339 6.269178
(PID.TID 0000.0001) >##period (s):  44714.165192 43200.001287 45570.053512 43082.050319 86164.077005 92949.635701 86637.199772 96726.085703 1180295.545550 2380715.863587 22357.090551 21972.021930 22569.042448
(PID.TID 0000.0001) > tidalPeriod  = 44714.165 43200.001 45570.054 43082.050 86164.077 92949.636 86637.200 96726.086 1180295.546 2380715.864 22357.091 21972.022 22569.042,
(PID.TID 0000.0001) > OBSamFile='OBSam_2160x13.bin',
(PID.TID 0000.0001) > OBNamFile='OBNam_2160x13.bin',
(PID.TID 0000.0001) > OBSphFile='OBSph_2160x13.bin',
(PID.TID 0000.0001) > OBNphFile='OBNph_2160x13.bin',
(PID.TID 0000.0001) > &
(PID.TID 0000.0001) ># *****************************************
(PID.TID 0000.0001) ># Sponge Layer Parameters.
(PID.TID 0000.0001) ># *****************************************
(PID.TID 0000.0001) > &OBCS_PARM03
(PID.TID 0000.0001) ># Urelaxobcsinner=2629800.E0,
(PID.TID 0000.0001) ># Urelaxobcsbound=43200.E0,
(PID.TID 0000.0001) >#
(PID.TID 0000.0001) ># Vrelaxobcsinner=2629800.E0,
(PID.TID 0000.0001) ># Vrelaxobcsbound=43200.E0,
(PID.TID 0000.0001) >#
(PID.TID 0000.0001) ># spongeThickness=16,
(PID.TID 0000.0001) > &
(PID.TID 0000.0001) 
(PID.TID 0000.0001)  OBCS_READPARMS: finished reading data.obcs
(PID.TID 0000.0001)  OB_indexUnset = /* unset OB index value (i.e. no OB) */
(PID.TID 0000.0001)                       0
(PID.TID 0000.0001)     ;
(PID.TID 0000.0001)  Northern OB global indices : OB_Jnorth =
(PID.TID 0000.0001)  2160 @      537                            /* I =  1:*** */
(PID.TID 0000.0001)  Southern OB global indices : OB_Jsouth =
(PID.TID 0000.0001)  2160 @        8                            /* I =  1:*** */
(PID.TID 0000.0001)  Eastern  OB global indices : OB_Ieast =
(PID.TID 0000.0001)   540 @        0                            /* J =  1:540 */
(PID.TID 0000.0001)  Western  OB global indices : OB_Iwest =
(PID.TID 0000.0001)   540 @        0                            /* J =  1:540 */
(PID.TID 0000.0001) 
(PID.TID 0000.0001)  KPP_READPARMS: opening data.kpp
(PID.TID 0000.0001)  OPEN_COPY_DATA_FILE: opening file data.kpp
(PID.TID 0000.0001) // =======================================================
(PID.TID 0000.0001) // Parameter file "data.kpp"
(PID.TID 0000.0001) // =======================================================
(PID.TID 0000.0001) ># KPP parameters
(PID.TID 0000.0001) > &KPP_PARM01
(PID.TID 0000.0001) >### KPPmixingMaps   = .FALSE.,
(PID.TID 0000.0001) >### KPPwriteState   = .FALSE.,
(PID.TID 0000.0001) >### kpp_dumpFreq    = 0.,
(PID.TID 0000.0001) >### kpp_tavefreq    = 0.,
(PID.TID 0000.0001) >### Ricr            = 0.3559,
(PID.TID 0000.0001) >### Riinfty         = 0.6998,
(PID.TID 0000.0001) > &
(PID.TID 0000.0001) 
(PID.TID 0000.0001)  KPP_READPARMS ; starts to read KPP_PARM01
(PID.TID 0000.0001)  KPP_READPARMS ; read KPP_PARM01 : OK
(PID.TID 0000.0001)  KPP_READPARMS: finished reading data.kpp
(PID.TID 0000.0001)  DIAGNOSTICS_READPARMS: opening data.diagnostics
(PID.TID 0000.0001)  OPEN_COPY_DATA_FILE: opening file data.diagnostics
(PID.TID 0000.0001) // =======================================================
(PID.TID 0000.0001) // Parameter file "data.diagnostics"
(PID.TID 0000.0001) // =======================================================
(PID.TID 0000.0001) ># Diagnostic Package Choices
(PID.TID 0000.0001) >#-----------------
(PID.TID 0000.0001) ># for each output-stream:
(PID.TID 0000.0001) >#  filename(n) : prefix of the output file name (only 8.c long) for outp.stream n
(PID.TID 0000.0001) >#  frequency(n):< 0 : write snap-shot output every multiple of |frequency| (iter)
(PID.TID 0000.0001) >#               > 0 : write time-average output every multiple of frequency (iter)
(PID.TID 0000.0001) >#  levels(:,n) : list of levels to write to file (Notes: declared as REAL)
(PID.TID 0000.0001) >#                 when this entry is missing, select all common levels of this list
(PID.TID 0000.0001) >#  fields(:,n) : list of diagnostics fields (8.c) (see "available_diagnostics" file
(PID.TID 0000.0001) >#                 for the list of all available diag. in this particular config)
(PID.TID 0000.0001) >#--------------------------------------------------------------------
(PID.TID 0000.0001) >#
(PID.TID 0000.0001) > &diagnostics_list
(PID.TID 0000.0001) >#
(PID.TID 0000.0001) >   dumpatlast = .TRUE.,
(PID.TID 0000.0001) >#
(PID.TID 0000.0001) >#---
(PID.TID 0000.0001) >  frequency(1) = 3600.0,
(PID.TID 0000.0001) >   fields(1:5,1) = 'ETAN', 'oceTAUX', 'oceTAUY', 'EXFuwind', 'EXFvwind',
(PID.TID 0000.0001) >   filename(1) = 'diags/surface',
(PID.TID 0000.0001) >#---
(PID.TID 0000.0001) >  frequency(2) = 2592000.0,
(PID.TID 0000.0001) >   fields(1:9,2)='THETA','SALT','UVEL','VVEL','WVEL','UVELSQ','VVELSQ','WTHMASS','WSLTMASS',
(PID.TID 0000.0001) >   filename(2) = 'diags/interior',
(PID.TID 0000.0001) >#   levels(1:55,2) =  1., 2., 3., 4., 5., 6., 7., 8., 9.,10.,11.,13.,15.,
(PID.TID 0000.0001) >#                     17.,19.,21.,23.,25.,27.,29.,31.,33.,35.,37.,39.,41.,43.,45.,
(PID.TID 0000.0001) >#                     47.,49.,51.,53.,55.,57.,59.,61.,63.,65.,67.,69.,71.,73.,75.,
(PID.TID 0000.0001) >#                     77.,79.,81.,83.,85.,87.,89.,91.,93.,95.,97.,99.,
(PID.TID 0000.0001) > /
(PID.TID 0000.0001) >#
(PID.TID 0000.0001) >#
(PID.TID 0000.0001) ># Parameter for Diagnostics of per level statistics:
(PID.TID 0000.0001) >#-----------------
(PID.TID 0000.0001) ># for each output-stream:
(PID.TID 0000.0001) >#  stat_fname(n) : prefix of the output file name (only 8.c long) for outp.stream n
(PID.TID 0000.0001) >#  stat_freq(n):< 0 : write snap-shot output every |stat_freq| seconds
(PID.TID 0000.0001) >#               > 0 : write time-average output every stat_freq seconds
(PID.TID 0000.0001) >#  stat_phase(n)    : write at time = stat_phase + multiple of |stat_freq|
(PID.TID 0000.0001) >#  stat_region(:,n) : list of "regions" (default: 1 region only=global)
(PID.TID 0000.0001) >#  stat_fields(:,n) : list of diagnostics fields (8.c) (see "available_diagnostics.log"
(PID.TID 0000.0001) >#                 file for the list of all available diag. in this particular config)
(PID.TID 0000.0001) >#-----------------
(PID.TID 0000.0001) > &DIAG_STATIS_PARMS
(PID.TID 0000.0001) ># diagSt_regMaskFile='basin_masks_eccollc_90x50.bin',
(PID.TID 0000.0001) ># nSetRegMskFile=1,
(PID.TID 0000.0001) ># set_regMask(1)= 1,  1,  1,  1,  1,  1,  1,  1,  1,
(PID.TID 0000.0001) >#                 1,  1,  1,  1,  1,  1,  1,  1
(PID.TID 0000.0001) ># val_regMask(1)= 1., 2., 3., 4., 5., 6., 7., 8., 9.,
(PID.TID 0000.0001) >#                10.,11.,12.,13.,14.,15.,16.,17.
(PID.TID 0000.0001) >##---
(PID.TID 0000.0001) ># stat_fields(1,1)= 'ETAN    ','ETANSQ  ','DETADT2 ',
(PID.TID 0000.0001) >#                   'UVEL    ','VVEL    ','WVEL    ',
(PID.TID 0000.0001) >#                   'THETA   ','SALT    ',
(PID.TID 0000.0001) >#    stat_fname(1)= 'dynStDiag',
(PID.TID 0000.0001) >#     stat_freq(1)= 3153600.,
(PID.TID 0000.0001) ># stat_region(1,1)=  1, 2, 3, 4, 5, 6, 7, 8, 9,
(PID.TID 0000.0001) >#                   10,11,12,13,14,15,16,17
(PID.TID 0000.0001) >##---
(PID.TID 0000.0001) ># stat_fields(1,2)= 'oceTAUX ','oceTAUY ',
(PID.TID 0000.0001) >#                   'surForcT','surForcS','TFLUX   ','SFLUX   ',
(PID.TID 0000.0001) >#                   'oceQnet ','oceSflux','oceFWflx',
(PID.TID 0000.0001) >#    stat_fname(2)= 'surfStDiag',
(PID.TID 0000.0001) >#     stat_freq(2)= 3153600.,
(PID.TID 0000.0001) ># stat_region(1,2)=  1, 2, 3, 4, 5, 6, 7, 8, 9,
(PID.TID 0000.0001) >#                   10,11,12,13,14,15,16,17
(PID.TID 0000.0001) > /
(PID.TID 0000.0001) 
(PID.TID 0000.0001) S/R DIAGNOSTICS_READPARMS, read namelist "diagnostics_list": start
(PID.TID 0000.0001) S/R DIAGNOSTICS_READPARMS, read namelist "diagnostics_list": OK
(PID.TID 0000.0001) S/R DIAGNOSTICS_READPARMS, read namelist "DIAG_STATIS_PARMS": start
(PID.TID 0000.0001) S/R DIAGNOSTICS_READPARMS, read namelist "DIAG_STATIS_PARMS": OK
(PID.TID 0000.0001)  DIAGNOSTICS_READPARMS: global parameter summary:
(PID.TID 0000.0001)  dumpAtLast = /* always write time-ave diags at the end */
(PID.TID 0000.0001)                   T
(PID.TID 0000.0001)     ;
(PID.TID 0000.0001)  diag_mnc =   /* write NetCDF output files */
(PID.TID 0000.0001)                   F
(PID.TID 0000.0001)     ;
(PID.TID 0000.0001)  useMissingValue = /* put MissingValue where mask = 0 */
(PID.TID 0000.0001)                   F
(PID.TID 0000.0001)     ;
(PID.TID 0000.0001)  diagCG_maxIters = /* max number of iters in diag_cg2d */
(PID.TID 0000.0001)                    1000
(PID.TID 0000.0001)     ;
(PID.TID 0000.0001)  diagCG_resTarget = /* residual target for diag_cg2d */
(PID.TID 0000.0001)                 1.000000000000000E-07
(PID.TID 0000.0001)     ;
(PID.TID 0000.0001)  diagCG_pcOffDFac = /* preconditioner off-diagonal factor */
(PID.TID 0000.0001)                 9.611687812379854E-01
(PID.TID 0000.0001)     ;
(PID.TID 0000.0001) -----------------------------------------------------
(PID.TID 0000.0001)  DIAGNOSTICS_READPARMS: active diagnostics summary:
(PID.TID 0000.0001) -----------------------------------------------------
(PID.TID 0000.0001) Creating Output Stream: diags/surface
(PID.TID 0000.0001) Output Frequency:       3600.000000 ; Phase:           0.000000
(PID.TID 0000.0001)  Averaging Freq.:       3600.000000 , Phase:           0.000000 , Cycle:   1
(PID.TID 0000.0001)  missing value: -9.990000000000E+02
(PID.TID 0000.0001)  Levels:    will be set later
(PID.TID 0000.0001)  Fields:    ETAN     oceTAUX  oceTAUY  EXFuwind EXFvwind
(PID.TID 0000.0001) Creating Output Stream: diags/interior
(PID.TID 0000.0001) Output Frequency:    2592000.000000 ; Phase:           0.000000
(PID.TID 0000.0001)  Averaging Freq.:    2592000.000000 , Phase:           0.000000 , Cycle:   1
(PID.TID 0000.0001)  missing value: -9.990000000000E+02
(PID.TID 0000.0001)  Levels:    will be set later
(PID.TID 0000.0001)  Fields:    THETA    SALT     UVEL     VVEL     WVEL     UVELSQ   VVELSQ   WTHMASS  WSLTMASS
(PID.TID 0000.0001) -----------------------------------------------------
(PID.TID 0000.0001)  DIAGNOSTICS_READPARMS: statistics diags. summary:
(PID.TID 0000.0001) -----------------------------------------------------
(PID.TID 0000.0001) 
(PID.TID 0000.0001) SET_PARMS: done
(PID.TID 0000.0001)  MDS_READVEC_LOC: open file: delYFile
(PID.TID 0000.0001) S/R LOAD_GRID_SPACING: delY loaded from file: delYFile
(PID.TID 0000.0001) Enter INI_VERTICAL_GRID: setInterFDr=    T ; setCenterDr=    F
(PID.TID 0000.0001) %MON XC_max                       =   6.9791666666678E+00
(PID.TID 0000.0001) %MON XC_min                       =  -8.2979166666667E+01
(PID.TID 0000.0001) %MON XC_mean                      =  -3.8000000000000E+01
(PID.TID 0000.0001) %MON XC_sd                        =   2.5980759329244E+01
(PID.TID 0000.0001) %MON XG_max                       =   6.9583333333345E+00
(PID.TID 0000.0001) %MON XG_min                       =  -8.3000000000000E+01
(PID.TID 0000.0001) %MON XG_mean                      =  -3.8020833333333E+01
(PID.TID 0000.0001) %MON XG_sd                        =   2.5980759329244E+01
(PID.TID 0000.0001) %MON DXC_max                      =   4.1396408443605E+03
(PID.TID 0000.0001) %MON DXC_min                      =   3.3595207907282E+03
(PID.TID 0000.0001) %MON DXC_mean                     =   3.7639154747743E+03
(PID.TID 0000.0001) %MON DXC_sd                       =   2.2707285978599E+02
(PID.TID 0000.0001) %MON DXF_max                      =   4.1396408443605E+03
(PID.TID 0000.0001) %MON DXF_min                      =   3.3595207907282E+03
(PID.TID 0000.0001) %MON DXF_mean                     =   3.7639154747743E+03
(PID.TID 0000.0001) %MON DXF_sd                       =   2.2707285978599E+02
(PID.TID 0000.0001) %MON DXG_max                      =   4.1402617210449E+03
(PID.TID 0000.0001) %MON DXG_min                      =   3.3603032053391E+03
(PID.TID 0000.0001) %MON DXG_mean                     =   3.7646389662878E+03
(PID.TID 0000.0001) %MON DXG_sd                       =   2.2702689694182E+02
(PID.TID 0000.0001) %MON DXV_max                      =   4.1402617210449E+03
(PID.TID 0000.0001) %MON DXV_min                      =   3.3603032053391E+03
(PID.TID 0000.0001) %MON DXV_mean                     =   3.7646389662878E+03
(PID.TID 0000.0001) %MON DXV_sd                       =   2.2702689694182E+02
(PID.TID 0000.0001) %MON YC_max                       =   4.3512569427490E+01
(PID.TID 0000.0001) %MON YC_min                       =   2.6667170524597E+01
(PID.TID 0000.0001) %MON YC_mean                      =   3.5365724839105E+01
(PID.TID 0000.0001) %MON YC_sd                        =   4.8759077938983E+00
(PID.TID 0000.0001) %MON YG_max                       =   4.3498512268066E+01
(PID.TID 0000.0001) %MON YG_min                       =   2.6650054931641E+01
(PID.TID 0000.0001) %MON YG_mean                      =   3.5350098383868E+01
(PID.TID 0000.0001) %MON YG_sd                        =   4.8767967628688E+00
(PID.TID 0000.0001) %MON DYC_max                      =   3.8052066241563E+03
(PID.TID 0000.0001) %MON DYC_min                      =   3.1263150971014E+03
(PID.TID 0000.0001) %MON DYC_mean                     =   3.4746196212554E+03
(PID.TID 0000.0001) %MON DYC_sd                       =   1.9733005957431E+02
(PID.TID 0000.0001) %MON DYF_max                      =   3.8057367596608E+03
(PID.TID 0000.0001) %MON DYF_min                      =   3.1256789344960E+03
(PID.TID 0000.0001) %MON DYF_mean                     =   3.4746196212554E+03
(PID.TID 0000.0001) %MON DYF_sd                       =   1.9787288708661E+02
(PID.TID 0000.0001) %MON DYG_max                      =   3.8057367596608E+03
(PID.TID 0000.0001) %MON DYG_min                      =   3.1256789344960E+03
(PID.TID 0000.0001) %MON DYG_mean                     =   3.4746196212554E+03
(PID.TID 0000.0001) %MON DYG_sd                       =   1.9787288708661E+02
(PID.TID 0000.0001) %MON DYU_max                      =   3.8052066241563E+03
(PID.TID 0000.0001) %MON DYU_min                      =   3.1263150971014E+03
(PID.TID 0000.0001) %MON DYU_mean                     =   3.4746196212554E+03
(PID.TID 0000.0001) %MON DYU_sd                       =   1.9733005957431E+02
(PID.TID 0000.0001) %MON RA_max                       =   1.5754383098869E+07
(PID.TID 0000.0001) %MON RA_min                       =   1.0500783260236E+07
(PID.TID 0000.0001) %MON RA_mean                      =   1.3123104411967E+07
(PID.TID 0000.0001) %MON RA_sd                        =   1.5313828268276E+06
(PID.TID 0000.0001) %MON RAW_max                      =   1.5754383098869E+07
(PID.TID 0000.0001) %MON RAW_min                      =   1.0500783260236E+07
(PID.TID 0000.0001) %MON RAW_mean                     =   1.3123104411967E+07
(PID.TID 0000.0001) %MON RAW_sd                       =   1.5313828268276E+06
(PID.TID 0000.0001) %MON RAS_max                      =   1.5749824888079E+07
(PID.TID 0000.0001) %MON RAS_min                      =   1.0505367034035E+07
(PID.TID 0000.0001) %MON RAS_mean                     =   1.3125365861136E+07
(PID.TID 0000.0001) %MON RAS_sd                       =   1.5281062334216E+06
(PID.TID 0000.0001) %MON RAZ_max                      =   1.5749824888079E+07
(PID.TID 0000.0001) %MON RAZ_min                      =   1.0505367034035E+07
(PID.TID 0000.0001) %MON RAZ_mean                     =   1.3125365861136E+07
(PID.TID 0000.0001) %MON RAZ_sd                       =   1.5281062334216E+06
(PID.TID 0000.0001) %MON AngleCS_max                  =   1.0000000000000E+00
(PID.TID 0000.0001) %MON AngleCS_min                  =   1.0000000000000E+00
(PID.TID 0000.0001) %MON AngleCS_mean                 =   1.0000000000000E+00
(PID.TID 0000.0001) %MON AngleCS_sd                   =   0.0000000000000E+00
(PID.TID 0000.0001) %MON AngleSN_max                  =   0.0000000000000E+00
(PID.TID 0000.0001) %MON AngleSN_min                  =   0.0000000000000E+00
(PID.TID 0000.0001) %MON AngleSN_mean                 =   0.0000000000000E+00
(PID.TID 0000.0001) %MON AngleSN_sd                   =   0.0000000000000E+00
(PID.TID 0000.0001)  MDS_READ_FIELD: opening global file: bathy.bin
(PID.TID 0000.0001) // =======================================================
(PID.TID 0000.0001) // Field Model R_low (ini_masks_etc)
(PID.TID 0000.0001) // CMIN =         -8.535130615234375E+02
(PID.TID 0000.0001) // CMAX =         -5.000000000000000E+00
(PID.TID 0000.0001) // CINT =          3.142640968605324E+01
(PID.TID 0000.0001) // SYMBOLS (CMIN->CMAX): -abcdefghijklmnopqrstuvwxyz+
(PID.TID 0000.0001) //                  0.0: .
(PID.TID 0000.0001) // RANGE I (Lo:Hi:Step):(    -3:    94:     1)
(PID.TID 0000.0001) // RANGE J (Lo:Hi:Step):(    94:    -3:    -1)
(PID.TID 0000.0001) // RANGE K (Lo:Hi:Step):(   1:   1:   1)
(PID.TID 0000.0001) // =======================================================
(PID.TID 0000.0001) K =   1
(PID.TID 0000.0001) //                I=6       I=16      I=26      I=36      I=46      I=56      I=66      I=76      I=86
(PID.TID 0000.0001) // |--J--|321012345|789012345|789012345|789012345|789012345|789012345|789012345|789012345|789012345|78901234
(PID.TID 0000.0001) //     94 ..............................................+++++++zzzzzzzzzzzzzzzzyvrpnlkjhfecbbbbbbbbbbbbbbbbb
(PID.TID 0000.0001) //     93 ..............................................++++++++zzzzzzzzzzzzzzzyvronlkjhfecbbbbbbbbbbbbbbbbb
(PID.TID 0000.0001) //     92 ..............................................+++++++zzzzzzzzzzzzzzzzywronlkjhfedcbbbbbbbbbbbbbbbb
(PID.TID 0000.0001) //     91 ..............................................+++++++zzzzzzzzzzzzzzzzywrpnlkjhfeedbbbbbbbbbbbbbbbb
(PID.TID 0000.0001) //     90 ...............................................+++++++zzzzzzzzzzzzzzzywspnlkihfeedcbbbbbbbbbbbbbbb
(PID.TID 0000.0001) //     89 ...............................................++++++++zzzzzzzzzzzzzzyxspnlkigeeedcbbbbbbbbbbbbbbb
(PID.TID 0000.0001) //     88 ...............................................+++++++++zzzzzzzzzzzzzyxtpnmkjgeeedcbbbbbbbbbbbbbbb
(PID.TID 0000.0001) //     87 ................................................+++++++zzzzzzzzzzzzzzyxupnmkjheeedcbbbbbbbbbbbbbbb
(PID.TID 0000.0001) //     86 ................................................++++++++++++zzzzzzzzzyxvpnmljheeedcbbbbbbbbbbbbbbb
(PID.TID 0000.0001) //     85 .................................................+++z++z++++zzzzzzzzzyxwqnmljheeeddbbbbbbbbbbbbbbb
(PID.TID 0000.0001) //     84 .................................................+++++zzzzzzzzzzzzzzzyywrnmljhfeeddcbbbbbbbbbbbbbb
(PID.TID 0000.0001) //     83 .................................................++++++zzzzzzzzzzzzzzyywtnmljifeeedcbbbbbbbbbbbbbb
(PID.TID 0000.0001) //     82 ..................................................++++++zzzzzzzzzzzzzyyxuomljigeeedcbbbbbbbbbbbbbb
(PID.TID 0000.0001) //     81 ..................................................+++++++zzzzzzzzzzzzyyxvpmkkigeeddccbbbbbbbbbbbbb
(PID.TID 0000.0001) //     80 ..................................................+++++++zzzzzzzzzzzzyyxvrnlkjgeeddccbbbbbbbbbbbbb
(PID.TID 0000.0001) //     79 ...................................................+++++zzzzzzzzzzzzzyyxwtpnmkheeddccbbbbbbbbbbbbb
(PID.TID 0000.0001) //     78 ...................................................++++++zzzzzzzzzzzzzyywurpnlhfeddccbbbbbbbbbbbbb
(PID.TID 0000.0001) //     77 ....................................................++++zzzzzzzzzzzzzzyywvspnkifeddccbbbbbbbbbbbbb
(PID.TID 0000.0001) //     76 ....................................................+++++zzzzzzzzzzzzzyyxvsomkifeddccbbbbbbbbbbbbb
(PID.TID 0000.0001) //     75 ....................................................++++++zzzzzzzzzzzzyyxvsomkifeddcccbbbbbbbbbbbb
(PID.TID 0000.0001) //     74 .....................................................++++++zzzzzzzzzzzyyxwtpmkifeddcccbbbbbbbbbbbb
(PID.TID 0000.0001) //     73 .....................................................++++++zzzzzzzzzzzyyywuqnligedddccbbbbbbbbbbbb
(PID.TID 0000.0001) //     72 ......................................................+++++++zzzzzzzzzzyywuroljhfeddccbbbbbbbbbbbb
(PID.TID 0000.0001) //     71 ......................................................+++++++++zzzzzzzzyyxvspmkhfeddccbbbbbbbbbbbb
(PID.TID 0000.0001) //     70 .......................................................++++++++z+zzzzzzyyxvtqnligeddcccbbbbbbbbbbb
(PID.TID 0000.0001) //     69 .......................................................+++++++++zzzzzzzyyxvtromjgeddccbbbbbbbbbbbb
(PID.TID 0000.0001) //     68 ........................................................+++++++++zzzzzzyyxwurpnkhfdcccbbbbbbbbbbbb
(PID.TID 0000.0001) //     67 .........................................................+++++z++zzzzzzyyxwusqolifdbcbbbbbbbbbabbb
(PID.TID 0000.0001) //     66 .........................................................+++++z++zzzzzzzyywusqomjgecbbbbbbbbbaaaab
(PID.TID 0000.0001) //     65 .........................................................++++++++zzzzzzzyywvtrpnkhecbbbaabbaaaaaaa
(PID.TID 0000.0001) //     64 ..........................................................++++++++zzzzzzyyxvtrpnlhfccbbbabbaaaaaaa
(PID.TID 0000.0001) //     63 ..........................................................++++++++zzzzzzyyxvtrpnlifccbbbabaaaaaaaa
(PID.TID 0000.0001) //     62 ...........................................................+++++++zzzzzzyyxvurpoljgccbbbbaaaaaaaaa
(PID.TID 0000.0001) //     61 ............................................................+++++++zzzzzyyxwusqomkgdcbbbaaaaaaaaaa
(PID.TID 0000.0001) //     60 .............................................................++++++zzzzzyyxwusqomkhdcbbbaaaaaaaaaa
(PID.TID 0000.0001) //     59 .............................................................++++++zzzzzyyywusqonliecbbbaaaaaaaaaa
(PID.TID 0000.0001) //     58 ..............................................................++++++zzzzyyyxvtrpnljfcbbbaaaaaaa-aa
(PID.TID 0000.0001) //     57 ..............................................................++++++zzzzzyyxvtrpnljgcbbbaaaaaaa-aa
(PID.TID 0000.0001) //     56 ..............................................................++++++zzzzzyyxvtrpnljgdbbbbaaaaaa-a-
(PID.TID 0000.0001) //     55 ...............................................................++++zzzzzzyyxvusqnljgdbbbbbaaaaa---
(PID.TID 0000.0001) //     54 ...............................................................++++zzzzzzyyxwusqomkhdbbbbbaaaaaa--
(PID.TID 0000.0001) //     53 ...............................................................+++++zzzzzyyywusqomkhdbbbbbbaaaaa--
(PID.TID 0000.0001) //     52 ............................................................++++++++zzzzzyyywusqomkidbbbbbbbaaaa--
(PID.TID 0000.0001) //     51 ............................................................++++++++zzzzzyyywutqpnliebabbbbbbaaa--
(PID.TID 0000.0001) //     50 .............................................................+++++++zzzzzzyywvtrpnlifcabbbbbbaaaa-
(PID.TID 0000.0001) //     49 .............................................................++++++++zzzzzyyxvtrpnljfcabbccbbaaa--
(PID.TID 0000.0001) //     48 ............................................................+++++++++zzzzzyyxvtrpnljfcbbbcccbbaa--
(PID.TID 0000.0001) //     47 ............................................................+++++++++zzzzzyyxvtrpnmjfcbbcccccbaaa-
(PID.TID 0000.0001) //     46 ............................................................+++++++++zzzzzyyxvusqnmjgcbbccdcccbaaa
(PID.TID 0000.0001) //     45 .............................................................++++++zzzzzzzzyxvusqnljfcbbccddccbbaa
(PID.TID 0000.0001) //     44 ..............................................................+++++zzzzzzzzyxwusqnmjgcbbcddddccbaa
(PID.TID 0000.0001) //     43 ..............................................................++++z+zzzzzzzyxwusqnmkgcbbcdedddcbba
(PID.TID 0000.0001) //     42 ..............................................................++++z+zzzzzzzyxwusqomkgcbbcdeeeddcbb
(PID.TID 0000.0001) //     41 ...............................................................+++++zzzzzzzyxwusqomjgcbbcdeeeeddcb
(PID.TID 0000.0001) //     40 ...............................................................++++++zzzzzzyxwusqomkgdbbcdeeeeeddb
(PID.TID 0000.0001) //     39 ................................................................++++++zzzzzyxwusqomkhdbbcdeeffeedc
(PID.TID 0000.0001) //     38 ................................................................+++++++zzzzyxwutqomkhdbbcdefffffed
(PID.TID 0000.0001) //     37 .................................................................++++++zzzzyywutqomkhdbbceefgggffe
(PID.TID 0000.0001) //     36 .................................................................++++++zzzzyxwusqomkhdcbceffghggff
(PID.TID 0000.0001) //     35 .................................................................+++++++zzzyywusqomkhdccdefghhhhgg
(PID.TID 0000.0001) //     34 ..................................................................++++++zzzyywusqomkhddcdefghhihhh
(PID.TID 0000.0001) //     33 ..................................................................++++++zzzzywusqomkhddddefghiiiih
(PID.TID 0000.0001) //     32 ...................................................................+++++zzzyywusqomkheddeefgiijjji
(PID.TID 0000.0001) //     31 ...................................................................++++++zzyywusqomkieddeefhijkkkj
(PID.TID 0000.0001) //     30 ...................................................................+++++zzzzywusqomkieddeefhijkllk
(PID.TID 0000.0001) //     29 ....................................................................+++++zzzywusqomkieddeefhiklmmm
(PID.TID 0000.0001) //     28 ....................................................................+++++zzzywusqomkheddeefhjkmnon
(PID.TID 0000.0001) //     27 ....................................................................+++++zzzywusqomkheddeeghjlmopp
(PID.TID 0000.0001) //     26 .....................................................................++++zzzywusqomkheddeeghjkmoqq
(PID.TID 0000.0001) //     25 ....................................................................+++++zzzxwusqomkhdcddefhiknprr
(PID.TID 0000.0001) //     24 ....................................................................++++++zzywusqomkhdcddeghiknqss
(PID.TID 0000.0001) //     23 .....................................................................+++++zzywusqomkhcddefghiknqux
(PID.TID 0000.0001) //     22 .....................................................................+++++zzywusqomjhdcddefhilnrzz
(PID.TID 0000.0001) //     21 ......................................................................++++zzywusqomjhdddeefhiknrzz
(PID.TID 0000.0001) //     20 ......................................................................++++zzywusqomjgdddefghilnszz
(PID.TID 0000.0001) //     19 .......................................................................+++zzywusqomjgddddefgiknsyz
(PID.TID 0000.0001) //     18 .......................................................................+++zzywurqomkgddddefgijntyz
(PID.TID 0000.0001) //     17 ........................................................................++zzywtrpomkhddddefghjmtxy
(PID.TID 0000.0001) //     16 ........................................................................+++zywurpomkhdcddefghjmuwy
(PID.TID 0000.0001) //     15 .........................................................................++zxwtrpomkhdcccdfghjnvwx
(PID.TID 0000.0001) //     14 .........................................................................++zxwurpnmkhecccdfghjmuwx
(PID.TID 0000.0001) //     13 .........................................................................++zxwtrpnmkhecccdfghiltwx
(PID.TID 0000.0001) //     12 ..........................................................................+zxwurpnlkiecccdfggikqxx
(PID.TID 0000.0001) //     11 ..........................................................................++yvtrpnljhfdccdefghjmvw
(PID.TID 0000.0001) //     10 ..........................................................................++yvtrpnljhecccdefghjlru
(PID.TID 0000.0001) //      9 ..........................................................................++yvtrpnljhedccdeffgikos
(PID.TID 0000.0001) //      8 ..........................................................................++yvtrpnligedccdfffgiknr
(PID.TID 0000.0001) //      7 ..................................................................................................
(PID.TID 0000.0001) //      6 ..................................................................................................
(PID.TID 0000.0001) //      5 ..................................................................................................
(PID.TID 0000.0001) //      4 ..................................................................................................
(PID.TID 0000.0001) //      3 ..................................................................................................
(PID.TID 0000.0001) //      2 ..................................................................................................
(PID.TID 0000.0001) //      1 ..................................................................................................
(PID.TID 0000.0001) //      0 ..................................................................................................
(PID.TID 0000.0001) //     -1 ..................................................................................................
(PID.TID 0000.0001) //     -2 ..................................................................................................
(PID.TID 0000.0001) //     -3 ..................................................................................................
(PID.TID 0000.0001) // =======================================================
(PID.TID 0000.0001) // END OF FIELD                                          =
(PID.TID 0000.0001) // =======================================================
(PID.TID 0000.0001) 
(PID.TID 0000.0001) // =======================================================
(PID.TID 0000.0001) // Field Model Ro_surf (ini_masks_etc)
(PID.TID 0000.0001) // CMIN =          1.000000000000000E+32
(PID.TID 0000.0001) // CMAX =         -1.000000000000000E+32
(PID.TID 0000.0001) // CINT =          0.000000000000000E+00
(PID.TID 0000.0001) // SYMBOLS (CMIN->CMAX): -abcdefghijklmnopqrstuvwxyz+
(PID.TID 0000.0001) //                  0.0: .
(PID.TID 0000.0001) // RANGE I (Lo:Hi:Step):(    -3:    94:     1)
(PID.TID 0000.0001) // RANGE J (Lo:Hi:Step):(    94:    -3:    -1)
(PID.TID 0000.0001) // RANGE K (Lo:Hi:Step):(   1:   1:   1)
(PID.TID 0000.0001) // =======================================================
(PID.TID 0000.0001) // =======================================================
(PID.TID 0000.0001) // END OF FIELD                                          =
(PID.TID 0000.0001) // =======================================================
(PID.TID 0000.0001) 
(PID.TID 0000.0001) // =======================================================
(PID.TID 0000.0001) // Field hFacC at iteration          0
(PID.TID 0000.0001) // CMIN =          1.000000000000000E+00
(PID.TID 0000.0001) // CMAX =          1.000000000000000E+00
(PID.TID 0000.0001) // CINT =          0.000000000000000E+00
(PID.TID 0000.0001) // SYMBOLS (CMIN->CMAX): -abcdefghijklmnopqrstuvwxyz+
(PID.TID 0000.0001) //                  0.0: .
(PID.TID 0000.0001) // RANGE I (Lo:Hi:Step):(    -3:    94:     1)
(PID.TID 0000.0001) // RANGE J (Lo:Hi:Step):(    94:    -3:    -1)
(PID.TID 0000.0001) // RANGE K (Lo:Hi:Step):(   1:   1:   1)
(PID.TID 0000.0001) // =======================================================
(PID.TID 0000.0001) // =======================================================
(PID.TID 0000.0001) // END OF FIELD                                          =
(PID.TID 0000.0001) // =======================================================
(PID.TID 0000.0001) 
(PID.TID 0000.0001) // =======================================================
(PID.TID 0000.0001) // Field hFacW at iteration          0
(PID.TID 0000.0001) // CMIN =          1.000000000000000E+00
(PID.TID 0000.0001) // CMAX =          1.000000000000000E+00
(PID.TID 0000.0001) // CINT =          0.000000000000000E+00
(PID.TID 0000.0001) // SYMBOLS (CMIN->CMAX): -abcdefghijklmnopqrstuvwxyz+
(PID.TID 0000.0001) //                  0.0: .
(PID.TID 0000.0001) // RANGE I (Lo:Hi:Step):(    -3:    94:     1)
(PID.TID 0000.0001) // RANGE J (Lo:Hi:Step):(    94:    -3:    -1)
(PID.TID 0000.0001) // RANGE K (Lo:Hi:Step):(   1:   1:   1)
(PID.TID 0000.0001) // =======================================================
(PID.TID 0000.0001) // =======================================================
(PID.TID 0000.0001) // END OF FIELD                                          =
(PID.TID 0000.0001) // =======================================================
(PID.TID 0000.0001) 
(PID.TID 0000.0001) // =======================================================
(PID.TID 0000.0001) // Field hFacS at iteration          0
(PID.TID 0000.0001) // CMIN =          1.000000000000000E+00
(PID.TID 0000.0001) // CMAX =          1.000000000000000E+00
(PID.TID 0000.0001) // CINT =          0.000000000000000E+00
(PID.TID 0000.0001) // SYMBOLS (CMIN->CMAX): -abcdefghijklmnopqrstuvwxyz+
(PID.TID 0000.0001) //                  0.0: .
(PID.TID 0000.0001) // RANGE I (Lo:Hi:Step):(    -3:    94:     1)
(PID.TID 0000.0001) // RANGE J (Lo:Hi:Step):(    94:    -3:    -1)
(PID.TID 0000.0001) // RANGE K (Lo:Hi:Step):(   1:   1:   1)
(PID.TID 0000.0001) // =======================================================
(PID.TID 0000.0001) // =======================================================
(PID.TID 0000.0001) // END OF FIELD                                          =
(PID.TID 0000.0001) // =======================================================
(PID.TID 0000.0001) 
(PID.TID 0000.0001) 
(PID.TID 0000.0001) // =======================================================
(PID.TID 0000.0001) // Calendar configuration >>> START <<<
(PID.TID 0000.0001) // =======================================================
(PID.TID 0000.0001) 
(PID.TID 0000.0001) modelstart = /* Start time of the model integration [s] */
(PID.TID 0000.0001)                 0.000000000000000E+00
(PID.TID 0000.0001)     ;
(PID.TID 0000.0001) modelend  = /* End time of the model integration [s] */
(PID.TID 0000.0001)                 3.600000000000000E+03
(PID.TID 0000.0001)     ;
(PID.TID 0000.0001) modelStep = /* Time interval for a model forward step [s] */
(PID.TID 0000.0001)                 2.400000000000000E+02
(PID.TID 0000.0001)     ;
(PID.TID 0000.0001) usingGregorianCalendar= /* Calendar Type: Gregorian Calendar */
(PID.TID 0000.0001)                   T
(PID.TID 0000.0001)     ;
(PID.TID 0000.0001) usingJulianCalendar = /* Calendar Type: Julian Calendar */
(PID.TID 0000.0001)                   F
(PID.TID 0000.0001)     ;
(PID.TID 0000.0001) usingNoLeapYearCal  = /* Calendar Type: without Leap Year */
(PID.TID 0000.0001)                   F
(PID.TID 0000.0001)     ;
(PID.TID 0000.0001) usingModelCalendar  = /* Calendar Type: Model Calendar */
(PID.TID 0000.0001)                   F
(PID.TID 0000.0001)     ;
(PID.TID 0000.0001) modelStartDate YYYYMMDD = /* Model start date YYYY-MM-DD */
(PID.TID 0000.0001)                20080101
(PID.TID 0000.0001)     ;
(PID.TID 0000.0001)   modelStartDate HHMMSS = /* Model start date HH-MM-SS  */
(PID.TID 0000.0001)                       0
(PID.TID 0000.0001)     ;
(PID.TID 0000.0001) modelEndDate   YYYYMMDD = /* Model end date YYYY-MM-DD */
(PID.TID 0000.0001)                20080101
(PID.TID 0000.0001)     ;
(PID.TID 0000.0001)   modelEndDate   HHMMSS = /* Model end date HH-MM-SS  */
(PID.TID 0000.0001)                   10000
(PID.TID 0000.0001)     ;
(PID.TID 0000.0001) intyears = /* Number of calendar years affected by the integration */
(PID.TID 0000.0001)                       1
(PID.TID 0000.0001)     ;
(PID.TID 0000.0001) intmonths= /* Number of calendar months affected by the integration */
(PID.TID 0000.0001)                       1
(PID.TID 0000.0001)     ;
(PID.TID 0000.0001) intdays = /* Number of calendar days affected by the integration */
(PID.TID 0000.0001)                       1
(PID.TID 0000.0001)     ;
(PID.TID 0000.0001) modelIter0 = /* Base timestep number  */
(PID.TID 0000.0001)                       0
(PID.TID 0000.0001)     ;
(PID.TID 0000.0001) modelIterEnd = /* Final timestep number  */
(PID.TID 0000.0001)                      15
(PID.TID 0000.0001)     ;
(PID.TID 0000.0001) modelIntSteps= /* Number of model timesteps  */
(PID.TID 0000.0001)                      15
(PID.TID 0000.0001)     ;
(PID.TID 0000.0001) 
(PID.TID 0000.0001) // =======================================================
(PID.TID 0000.0001) // Calendar configuration  >>> END <<<
(PID.TID 0000.0001) // =======================================================
(PID.TID 0000.0001) 
(PID.TID 0000.0001) GAD_INIT_FIXED: GAD_OlMinSize=  4  0  1
(PID.TID 0000.0001) 
(PID.TID 0000.0001) // ===================================
(PID.TID 0000.0001) // GAD parameters :
(PID.TID 0000.0001) // ===================================
(PID.TID 0000.0001) tempAdvScheme =   /* Temp. Horiz.Advection scheme selector */
(PID.TID 0000.0001)                       7
(PID.TID 0000.0001)     ;
(PID.TID 0000.0001) tempVertAdvScheme =   /* Temp. Vert. Advection scheme selector */
(PID.TID 0000.0001)                       7
(PID.TID 0000.0001)     ;
(PID.TID 0000.0001) tempMultiDimAdvec =   /* use Muti-Dim Advec method for Temp */
(PID.TID 0000.0001)                   T
(PID.TID 0000.0001)     ;
(PID.TID 0000.0001) tempSOM_Advection = /* use 2nd Order Moment Advection for Temp */
(PID.TID 0000.0001)                   F
(PID.TID 0000.0001)     ;
(PID.TID 0000.0001) AdamsBashforthGt = /* apply Adams-Bashforth extrapolation on Gt */
(PID.TID 0000.0001)                   F
(PID.TID 0000.0001)     ;
(PID.TID 0000.0001) AdamsBashforth_T = /* apply Adams-Bashforth extrapolation on Temp */
(PID.TID 0000.0001)                   F
(PID.TID 0000.0001)     ;
(PID.TID 0000.0001) saltAdvScheme =   /* Salt. Horiz.advection scheme selector */
(PID.TID 0000.0001)                       7
(PID.TID 0000.0001)     ;
(PID.TID 0000.0001) saltVertAdvScheme =   /* Salt. Vert. Advection scheme selector */
(PID.TID 0000.0001)                       7
(PID.TID 0000.0001)     ;
(PID.TID 0000.0001) saltMultiDimAdvec =   /* use Muti-Dim Advec method for Salt */
(PID.TID 0000.0001)                   T
(PID.TID 0000.0001)     ;
(PID.TID 0000.0001) saltSOM_Advection = /* use 2nd Order Moment Advection for Salt */
(PID.TID 0000.0001)                   F
(PID.TID 0000.0001)     ;
(PID.TID 0000.0001) AdamsBashforthGs = /* apply Adams-Bashforth extrapolation on Gs */
(PID.TID 0000.0001)                   F
(PID.TID 0000.0001)     ;
(PID.TID 0000.0001) AdamsBashforth_S = /* apply Adams-Bashforth extrapolation on Salt */
(PID.TID 0000.0001)                   F
(PID.TID 0000.0001)     ;
(PID.TID 0000.0001) // ===================================
(PID.TID 0000.0001) OBCS_INIT_FIXED: Setting OB indices in Overlap
(PID.TID 0000.0001)  Sets OBS(i,bi,bj=   91,  1,  1)=    8
(PID.TID 0000.0001)  Sets OBS(i,bi,bj=   92,  1,  1)=    8
(PID.TID 0000.0001)  Sets OBS(i,bi,bj=   93,  1,  1)=    8
(PID.TID 0000.0001)  Sets OBS(i,bi,bj=   94,  1,  1)=    8
(PID.TID 0000.0001) OBCS_INIT_FIXED: Setting OB indices in Overlap <= done
(PID.TID 0000.0001) 
(PID.TID 0000.0001) // =======================================================
(PID.TID 0000.0001) // External forcing (EXF) configuration >>> START <<<
(PID.TID 0000.0001) // =======================================================
(PID.TID 0000.0001) 
(PID.TID 0000.0001)  EXF general parameters:
(PID.TID 0000.0001) 
(PID.TID 0000.0001) exf_iprec = /* exf file precision */
(PID.TID 0000.0001)                      32
(PID.TID 0000.0001)     ;
(PID.TID 0000.0001) useExfYearlyFields = /* add extension _YEAR to input file names */
(PID.TID 0000.0001)                   T
(PID.TID 0000.0001)     ;
(PID.TID 0000.0001) twoDigitYear = /* use 2-digit year extension */
(PID.TID 0000.0001)                   F
(PID.TID 0000.0001)     ;
(PID.TID 0000.0001) useExfCheckRange = /* check for fields range */
(PID.TID 0000.0001)                   F
(PID.TID 0000.0001)     ;
(PID.TID 0000.0001) exf_output_interp = /* output directly interpolation result */
(PID.TID 0000.0001)                   F
(PID.TID 0000.0001)     ;
(PID.TID 0000.0001) exf_debugLev = /* select EXF-debug printing level */
(PID.TID 0000.0001)                       2
(PID.TID 0000.0001)     ;
(PID.TID 0000.0001) exf_monFreq  = /* EXF monitor frequency [ s ] */
(PID.TID 0000.0001)                 2.400000000000000E+02
(PID.TID 0000.0001)     ;
(PID.TID 0000.0001) repeatPeriod = /* period for cycling forcing dataset [ s ] */
(PID.TID 0000.0001)                 0.000000000000000E+00
(PID.TID 0000.0001)     ;
(PID.TID 0000.0001) climTempFreeze= /* Minimum climatological temperature [deg.C] */
(PID.TID 0000.0001)                -1.900000000000000E+00
(PID.TID 0000.0001)     ;
(PID.TID 0000.0001) windStressMax = /* Maximum absolute windstress [ Pa ] */
(PID.TID 0000.0001)                 2.000000000000000E+00
(PID.TID 0000.0001)     ;
(PID.TID 0000.0001) stressIsOnCgrid = /* set u,v_stress on Arakawa C-grid */
(PID.TID 0000.0001)                   F
(PID.TID 0000.0001)     ;
(PID.TID 0000.0001) rotateStressOnAgrid = /* rotate u,v_stress on Arakawa A-grid */
(PID.TID 0000.0001)                   F
(PID.TID 0000.0001)     ;
(PID.TID 0000.0001) cen2kel = /* conversion of deg. Centigrade to Kelvin [K] */
(PID.TID 0000.0001)                 2.731500000000000E+02
(PID.TID 0000.0001)     ;
(PID.TID 0000.0001) gravity_mks= /* gravitational acceleration [m/s^2] */
(PID.TID 0000.0001)                 9.810000000000000E+00
(PID.TID 0000.0001)     ;
(PID.TID 0000.0001) atmrho =  /* mean atmospheric density [kg/m^3] */
(PID.TID 0000.0001)                 1.200000000000000E+00
(PID.TID 0000.0001)     ;
(PID.TID 0000.0001) atmcp =  /* mean atmospheric specific heat [J/kg/K] */
(PID.TID 0000.0001)                 1.005000000000000E+03
(PID.TID 0000.0001)     ;
(PID.TID 0000.0001) flamb =  /* latent heat of evaporation [J/kg] */
(PID.TID 0000.0001)                 2.500000000000000E+06
(PID.TID 0000.0001)     ;
(PID.TID 0000.0001) flami =  /* latent heat of pure-ice melting [J/kg] */
(PID.TID 0000.0001)                 3.340000000000000E+05
(PID.TID 0000.0001)     ;
(PID.TID 0000.0001) cvapor_fac = /* const. for Saturation calculation [?] */
(PID.TID 0000.0001)                 6.403800000000000E+05
(PID.TID 0000.0001)     ;
(PID.TID 0000.0001) cvapor_exp = /* const. for Saturation calculation [?] */
(PID.TID 0000.0001)                 5.107400000000000E+03
(PID.TID 0000.0001)     ;
(PID.TID 0000.0001) cvapor_fac_ice= /* const. for Saturation calculation [?] */
(PID.TID 0000.0001)                 1.163780000000000E+07
(PID.TID 0000.0001)     ;
(PID.TID 0000.0001) cvapor_exp_ice= /* const. for Saturation calculation [?] */
(PID.TID 0000.0001)                 5.897800000000000E+03
(PID.TID 0000.0001)     ;
(PID.TID 0000.0001) humid_fac = /* humidity coef. in virtual temp. [(kg/kg)^-1] */
(PID.TID 0000.0001)                 6.060000000000000E-01
(PID.TID 0000.0001)     ;
(PID.TID 0000.0001) gamma_blk = /* adiabatic lapse rate [?] */
(PID.TID 0000.0001)                 1.000000000000000E-02
(PID.TID 0000.0001)     ;
(PID.TID 0000.0001) saltsat = /* reduction of Qsat over salty water [-] */
(PID.TID 0000.0001)                 9.800000000000000E-01
(PID.TID 0000.0001)     ;
(PID.TID 0000.0001) noNegativeEvap = /* prevent negative Evaporation */
(PID.TID 0000.0001)                   F
(PID.TID 0000.0001)     ;
(PID.TID 0000.0001) sstExtrapol = /* extrapolation coeff from lev. 1 & 2 to surf [-] */
(PID.TID 0000.0001)                 0.000000000000000E+00
(PID.TID 0000.0001)     ;
(PID.TID 0000.0001) cDrag_1 = /* coef used in drag calculation [?] */
(PID.TID 0000.0001)                 2.700000000000000E-03
(PID.TID 0000.0001)     ;
(PID.TID 0000.0001) cDrag_2 = /* coef used in drag calculation [?] */
(PID.TID 0000.0001)                 1.420000000000000E-04
(PID.TID 0000.0001)     ;
(PID.TID 0000.0001) cDrag_3 = /* coef used in drag calculation [?] */
(PID.TID 0000.0001)                 7.640000000000000E-05
(PID.TID 0000.0001)     ;
(PID.TID 0000.0001) cStanton_1 = /* coef used in Stanton number calculation [?] */
(PID.TID 0000.0001)                 3.270000000000000E-02
(PID.TID 0000.0001)     ;
(PID.TID 0000.0001) cStanton_2 = /* coef used in Stanton number calculation [?] */
(PID.TID 0000.0001)                 1.800000000000000E-02
(PID.TID 0000.0001)     ;
(PID.TID 0000.0001) cDalton = /* coef used in Dalton number calculation [?] */
(PID.TID 0000.0001)                 3.460000000000000E-02
(PID.TID 0000.0001)     ;
(PID.TID 0000.0001) exf_scal_BulkCdn= /* Drag coefficient scaling factor [-] */
(PID.TID 0000.0001)                 1.000000000000000E+00
(PID.TID 0000.0001)     ;
(PID.TID 0000.0001) zolmin = /* minimum stability parameter [?] */
(PID.TID 0000.0001)                -1.000000000000000E+02
(PID.TID 0000.0001)     ;
(PID.TID 0000.0001) psim_fac = /* coef used in turbulent fluxes calculation [-] */
(PID.TID 0000.0001)                 5.000000000000000E+00
(PID.TID 0000.0001)     ;
(PID.TID 0000.0001) zref =  /* reference height [ m ] */
(PID.TID 0000.0001)                 1.000000000000000E+01
(PID.TID 0000.0001)     ;
(PID.TID 0000.0001) hu =  /* height of mean wind [ m ] */
(PID.TID 0000.0001)                 1.000000000000000E+01
(PID.TID 0000.0001)     ;
(PID.TID 0000.0001) ht =  /* height of mean temperature [ m ] */
(PID.TID 0000.0001)                 2.000000000000000E+00
(PID.TID 0000.0001)     ;
(PID.TID 0000.0001) hq =  /* height of mean spec.humidity [ m ] */
(PID.TID 0000.0001)                 2.000000000000000E+00
(PID.TID 0000.0001)     ;
(PID.TID 0000.0001) uMin = /* minimum wind speed [m/s] */
(PID.TID 0000.0001)                 5.000000000000000E-01
(PID.TID 0000.0001)     ;
(PID.TID 0000.0001) useStabilityFct_overIce= /* transfert Coeffs over sea-ice depend on stability */
(PID.TID 0000.0001)                   F
(PID.TID 0000.0001)     ;
(PID.TID 0000.0001) exf_iceCd = /* drag coefficient over sea-ice (fixed) [-] */
(PID.TID 0000.0001)                 1.630000000000000E-03
(PID.TID 0000.0001)     ;
(PID.TID 0000.0001) exf_iceCe = /* transfert coeff. over sea-ice, for Evap (fixed) [-] */
(PID.TID 0000.0001)                 1.630000000000000E-03
(PID.TID 0000.0001)     ;
(PID.TID 0000.0001) exf_iceCh = /* transfert coeff. over sea-ice, Sens.Heat.(fixed)[-] */
(PID.TID 0000.0001)                 1.630000000000000E-03
(PID.TID 0000.0001)     ;
(PID.TID 0000.0001) exf_albedo =  /* Sea-water albedo [-] */
(PID.TID 0000.0001)                 1.000000000000000E-01
(PID.TID 0000.0001)     ;
(PID.TID 0000.0001) useExfZenAlbedo = /* Sea-water albedo varies with zenith angle */
(PID.TID 0000.0001)                   T
(PID.TID 0000.0001)     ;
(PID.TID 0000.0001) select_ZenAlbedo = /* Sea-water albedo computation method */
(PID.TID 0000.0001)                       1
(PID.TID 0000.0001)     ;
(PID.TID 0000.0001) useExfZenIncoming = /* compute incoming solar radiation */
(PID.TID 0000.0001)                   T
(PID.TID 0000.0001)     ;
(PID.TID 0000.0001) ocean_emissivity = /* longwave ocean-surface emissivity [-] */
(PID.TID 0000.0001)                 9.700000000000000E-01
(PID.TID 0000.0001)     ;
(PID.TID 0000.0001) ice_emissivity = /* longwave seaice emissivity [-] */
(PID.TID 0000.0001)                 9.500000000000000E-01
(PID.TID 0000.0001)     ;
(PID.TID 0000.0001) snow_emissivity = /* longwave snow  emissivity [-] */
(PID.TID 0000.0001)                 9.500000000000000E-01
(PID.TID 0000.0001)     ;
(PID.TID 0000.0001) 
(PID.TID 0000.0001)  EXF main CPP flags:
(PID.TID 0000.0001) 
(PID.TID 0000.0001) // USE_EXF_INTERPOLATION:              defined
(PID.TID 0000.0001) // ALLOW_ATM_TEMP:                     defined
(PID.TID 0000.0001) // ALLOW_ATM_WIND (useAtmWind):        defined
(PID.TID 0000.0001) // ALLOW_DOWNWARD_RADIATION:           defined
(PID.TID 0000.0001) // ALLOW_BULKFORMULAE:                 defined
(PID.TID 0000.0001) 
(PID.TID 0000.0001)    Zonal wind forcing starts at                          0.
(PID.TID 0000.0001)    Zonal wind forcing period is                       3600.
(PID.TID 0000.0001)    Zonal wind forcing repeat-cycle is                    0.
(PID.TID 0000.0001)    Zonal wind forcing is read from file:
(PID.TID 0000.0001)    >> era5/ERA5_u10m <<
(PID.TID 0000.0001)    interpolate "uwind" (method= 12 ):
(PID.TID 0000.0001)    lon0=   0.00000, nlon=  1280, lon_inc= 0.2812500
(PID.TID 0000.0001)    lat0= -89.78489, nlat=   640, inc(min,max)= 0.27868 0.28103
(PID.TID 0000.0001) 
(PID.TID 0000.0001)    Meridional wind forcing starts at                     0.
(PID.TID 0000.0001)    Meridional wind forcing period is                  3600.
(PID.TID 0000.0001)    Meridional wind forcing repeat-cycle is               0.
(PID.TID 0000.0001)    Meridional wind forcing is read from file:
(PID.TID 0000.0001)    >> era5/ERA5_v10m <<
(PID.TID 0000.0001)    interpolate "vwind" (method= 22 ):
(PID.TID 0000.0001)    lon0=   0.00000, nlon=  1280, lon_inc= 0.2812500
(PID.TID 0000.0001)    lat0= -89.78489, nlat=   640, inc(min,max)= 0.27868 0.28103
(PID.TID 0000.0001)     Interp. U & V comp. together: uvInterp_wind =    T
(PID.TID 0000.0001) 
(PID.TID 0000.0001)    Atmospheric temperature starts at                     0.
(PID.TID 0000.0001)    Atmospheric temperature period is                  3600.
(PID.TID 0000.0001)    Atmospheric temperature repeat-cycle is               0.
(PID.TID 0000.0001)    Atmospheric temperature is read from file:
(PID.TID 0000.0001)    >> era5/ERA5_tmp2m_degC <<
(PID.TID 0000.0001)    interpolate "atemp" (method=  1 ):
(PID.TID 0000.0001)    lon0=   0.00000, nlon=  1280, lon_inc= 0.2812500
(PID.TID 0000.0001)    lat0= -89.78489, nlat=   640, inc(min,max)= 0.27868 0.28103
(PID.TID 0000.0001) 
(PID.TID 0000.0001)    Atmospheric specific humidity starts at               0.
(PID.TID 0000.0001)    Atmospheric specific humidity period is            3600.
(PID.TID 0000.0001)    Atmospheric specific humidity rep-cycle is            0.
(PID.TID 0000.0001)    Atmospheric specific humidity is read from file:
(PID.TID 0000.0001)    >> era5/ERA5_spfh2m <<
(PID.TID 0000.0001)    interpolate "aqh" (method=  1 ):
(PID.TID 0000.0001)    lon0=   0.00000, nlon=  1280, lon_inc= 0.2812500
(PID.TID 0000.0001)    lat0= -89.78489, nlat=   640, inc(min,max)= 0.27868 0.28103
(PID.TID 0000.0001) 
(PID.TID 0000.0001) // ALLOW_READ_TURBFLUXES:          NOT defined
(PID.TID 0000.0001) // EXF_READ_EVAP:                  NOT defined
(PID.TID 0000.0001) 
(PID.TID 0000.0001)    Precipitation data starts at                       1800.
(PID.TID 0000.0001)    Precipitation data period is                       3600.
(PID.TID 0000.0001)    Precipitation data repeat-cycle is                    0.
(PID.TID 0000.0001)    Precipitation data is read from file:
(PID.TID 0000.0001)    >> era5/ERA5_rain <<
(PID.TID 0000.0001)    interpolate "precip" (method=  1 ):
(PID.TID 0000.0001)    lon0=   0.00000, nlon=  1280, lon_inc= 0.2812500
(PID.TID 0000.0001)    lat0= -89.78489, nlat=   640, inc(min,max)= 0.27868 0.28103
(PID.TID 0000.0001) 
(PID.TID 0000.0001) // ALLOW_RUNOFF:                       defined
(PID.TID 0000.0001)    Runoff data period is                               -12.
(PID.TID 0000.0001)    Runoff data is read from file:
(PID.TID 0000.0001)    >> runoff1p2472-360x180x12.bin <<
(PID.TID 0000.0001)    interpolate "runoff" (method=  1 ):
(PID.TID 0000.0001)    lon0=   0.50000, nlon=   360, lon_inc= 1.0000000
(PID.TID 0000.0001)    lat0= -89.50000, nlat=   180, lat_inc= 1.0000000
(PID.TID 0000.0001) 
(PID.TID 0000.0001) // ALLOW_RUNOFTEMP:                NOT defined
(PID.TID 0000.0001) // ALLOW_SALTFLX:                      defined
(PID.TID 0000.0001) 
(PID.TID 0000.0001)    Downward shortwave flux starts at                  1800.
(PID.TID 0000.0001)    Downward shortwave flux period is                  3600.
(PID.TID 0000.0001)    Downward shortwave flux repeat-cycle is               0.
(PID.TID 0000.0001)    Downward shortwave flux is read from file:
(PID.TID 0000.0001)    >> era5/ERA5_dsw <<
(PID.TID 0000.0001)    interpolate "swdown" (method=  1 ):
(PID.TID 0000.0001)    lon0=   0.00000, nlon=  1280, lon_inc= 0.2812500
(PID.TID 0000.0001)    lat0= -89.78489, nlat=   640, inc(min,max)= 0.27868 0.28103
(PID.TID 0000.0001) 
(PID.TID 0000.0001)    Downward longwave flux starts at                   1800.
(PID.TID 0000.0001)    Downward longwave flux period is                   3600.
(PID.TID 0000.0001)    Downward longwave flux repeat-cycle is                0.
(PID.TID 0000.0001)    Downward longwave flux is read from file:
(PID.TID 0000.0001)    >> era5/ERA5_dlw <<
(PID.TID 0000.0001)    interpolate "lwdown" (method=  1 ):
(PID.TID 0000.0001)    lon0=   0.00000, nlon=  1280, lon_inc= 0.2812500
(PID.TID 0000.0001)    lat0= -89.78489, nlat=   640, inc(min,max)= 0.27868 0.28103
(PID.TID 0000.0001) 
(PID.TID 0000.0001)    Atmospheric pressure forcing starts at                0.
(PID.TID 0000.0001)    Atmospheric pressure forcing period is             3600.
(PID.TID 0000.0001)    Atmospheric pressure forcing rep-cycle is             0.
(PID.TID 0000.0001)    Atmospheric pressure forcing is read from file:
(PID.TID 0000.0001)    >> era5/ERA5_pres <<
(PID.TID 0000.0001)    interpolate "apressure" (method=  1 ):
(PID.TID 0000.0001)    lon0=   0.00000, nlon=  1280, lon_inc= 0.2812500
(PID.TID 0000.0001)    lat0= -89.78489, nlat=   640, inc(min,max)= 0.27868 0.28103
(PID.TID 0000.0001) 
(PID.TID 0000.0001)    Tidal geopotential starts at                          0.
(PID.TID 0000.0001)    Tidal geopotential period is                       3600.
(PID.TID 0000.0001)    Tidal geopotential repeat-cycle is                    0.
(PID.TID 0000.0001)    Tidal geopotential is read from file:
(PID.TID 0000.0001)    >> tide <<
(PID.TID 0000.0001)    interpolate "tidePot" (method=  1 ):
(PID.TID 0000.0001)    lon0=   0.00000, nlon=   360, lon_inc= 1.0000000
(PID.TID 0000.0001)    lat0= -90.00000, nlat=   181, lat_inc= 1.0000000
(PID.TID 0000.0001) 
(PID.TID 0000.0001) // =======================================================
(PID.TID 0000.0001) // External forcing (EXF) climatology configuration :
(PID.TID 0000.0001) // =======================================================
(PID.TID 0000.0001) 
(PID.TID 0000.0001) // ALLOW_CLIMSST_RELAXATION:       NOT defined
(PID.TID 0000.0001) 
(PID.TID 0000.0001) // ALLOW_CLIMSSS_RELAXATION:       NOT defined
(PID.TID 0000.0001) 
(PID.TID 0000.0001) // =======================================================
(PID.TID 0000.0001) // External forcing (EXF) configuration  >>> END <<<
(PID.TID 0000.0001) // =======================================================
(PID.TID 0000.0001) 
(PID.TID 0000.0001) ------------------------------------------------------------
(PID.TID 0000.0001) DIAGNOSTICS_SET_LEVELS: done
(PID.TID 0000.0001)  Total Nb of available Diagnostics: ndiagt=   213
(PID.TID 0000.0001)  write list of available Diagnostics to file: available_diagnostics.log
(PID.TID 0000.0001) SETDIAG: Allocate  1 x  1 Levels for Diagnostic #    23 ETAN
(PID.TID 0000.0001) SETDIAG: Allocate  1 x  1 Levels for Diagnostic #    80 oceTAUX
(PID.TID 0000.0001) SETDIAG: Allocate  1 x  1 Levels for Diagnostic #    81 oceTAUY
(PID.TID 0000.0001) SETDIAG: Allocate  1 x  1 Levels for Diagnostic #   185 EXFuwind
(PID.TID 0000.0001) SETDIAG: Allocate  1 x  1 Levels for Diagnostic #   186 EXFvwind
(PID.TID 0000.0001) SETDIAG: Allocate100 x  1 Levels for Diagnostic #    26 THETA
(PID.TID 0000.0001) SETDIAG: Allocate100 x  1 Levels for Diagnostic #    27 SALT
(PID.TID 0000.0001) SETDIAG: Allocate100 x  1 Levels for Diagnostic #    30 UVEL
(PID.TID 0000.0001) SETDIAG: Allocate100 x  1 Levels for Diagnostic #    31 VVEL
(PID.TID 0000.0001) SETDIAG: Allocate100 x  1 Levels for Diagnostic #    32 WVEL
(PID.TID 0000.0001) SETDIAG: Allocate100 x  1 Levels for Diagnostic #    36 UVELSQ
(PID.TID 0000.0001) SETDIAG: Allocate100 x  1 Levels for Diagnostic #    37 VVELSQ
(PID.TID 0000.0001) SETDIAG: Allocate100 x  1 Levels for Diagnostic #    52 WTHMASS
(PID.TID 0000.0001) SETDIAG: Allocate100 x  1 Levels for Diagnostic #    55 WSLTMASS
(PID.TID 0000.0001)   space allocated for all diagnostics:     905 levels
(PID.TID 0000.0001)   set mate pointer for diag #    80  oceTAUX  , Parms: UU      U1 , mate:    81
(PID.TID 0000.0001)   set mate pointer for diag #    81  oceTAUY  , Parms: VV      U1 , mate:    80
(PID.TID 0000.0001)   set mate pointer for diag #    30  UVEL     , Parms: UUR     MR , mate:    31
(PID.TID 0000.0001)   set mate pointer for diag #    31  VVEL     , Parms: VVR     MR , mate:    30
(PID.TID 0000.0001)   set mate pointer for diag #    36  UVELSQ   , Parms: UURP    MR , mate:    37
(PID.TID 0000.0001)   set mate pointer for diag #    37  VVELSQ   , Parms: VVRP    MR , mate:    36
(PID.TID 0000.0001) DIAGNOSTICS_SET_POINTERS: Set levels for Outp.Stream: diags/surface
(PID.TID 0000.0001)  Levels:       1.
(PID.TID 0000.0001) DIAGNOSTICS_SET_POINTERS: Set levels for Outp.Stream: diags/interior
(PID.TID 0000.0001)  Levels:       1.   2.   3.   4.   5.   6.   7.   8.   9.  10.  11.  12.  13.  14.  15.  16.  17.  18.  19.  20.
(PID.TID 0000.0001)  Levels:      21.  22.  23.  24.  25.  26.  27.  28.  29.  30.  31.  32.  33.  34.  35.  36.  37.  38.  39.  40.
(PID.TID 0000.0001)  Levels:      41.  42.  43.  44.  45.  46.  47.  48.  49.  50.  51.  52.  53.  54.  55.  56.  57.  58.  59.  60.
(PID.TID 0000.0001)  Levels:      61.  62.  63.  64.  65.  66.  67.  68.  69.  70.  71.  72.  73.  74.  75.  76.  77.  78.  79.  80.
(PID.TID 0000.0001)  Levels:      81.  82.  83.  84.  85.  86.  87.  88.  89.  90.  91.  92.  93.  94.  95.  96.  97.  98.  99. 100.
(PID.TID 0000.0001) DIAGNOSTICS_SET_POINTERS: done
(PID.TID 0000.0001) ------------------------------------------------------------
(PID.TID 0000.0001) DIAGSTATS_SET_REGIONS: define no region
(PID.TID 0000.0001) ------------------------------------------------------------
(PID.TID 0000.0001)   space allocated for all stats-diags:       0 levels
(PID.TID 0000.0001) DIAGSTATS_SET_POINTERS: done
(PID.TID 0000.0001) ------------------------------------------------------------
(PID.TID 0000.0001) %MON fCori_max                    =   1.0041453744604E-04
(PID.TID 0000.0001) %MON fCori_min                    =   6.5455127240189E-05
(PID.TID 0000.0001) %MON fCori_mean                   =   8.4108169069800E-05
(PID.TID 0000.0001) %MON fCori_sd                     =   1.0123559863785E-05
(PID.TID 0000.0001) %MON fCoriG_max                   =   1.0038858482075E-04
(PID.TID 0000.0001) %MON fCoriG_min                   =   6.5416191986868E-05
(PID.TID 0000.0001) %MON fCoriG_mean                  =   8.4075736074280E-05
(PID.TID 0000.0001) %MON fCoriG_sd                    =   1.0127339310370E-05
(PID.TID 0000.0001) %MON fCoriCos_max                 =   1.3032901623502E-04
(PID.TID 0000.0001) %MON fCoriCos_min                 =   1.0576836400510E-04
(PID.TID 0000.0001) %MON fCoriCos_mean                =   1.1849999056980E-04
(PID.TID 0000.0001) %MON fCoriCos_sd                  =   7.1489734356779E-06
(PID.TID 0000.0001) INI_CG2D: CG2D normalisation factor =  1.4987118910715993E-04
(PID.TID 0000.0001) INI_CG2D: cg2dTolerance = 7.057349561527589E-12 (Area=1.1301464310E+13)
(PID.TID 0000.0001) 
(PID.TID 0000.0001) // =======================================================
(PID.TID 0000.0001) // Model configuration
(PID.TID 0000.0001) // =======================================================
(PID.TID 0000.0001) //
(PID.TID 0000.0001) // "Physical" paramters ( PARM01 in namelist )
(PID.TID 0000.0001) //
(PID.TID 0000.0001) buoyancyRelation = /* Type of relation to get Buoyancy */
(PID.TID 0000.0001)               'OCEANIC'
(PID.TID 0000.0001)     ;
(PID.TID 0000.0001) fluidIsAir   =  /* fluid major constituent is Air */
(PID.TID 0000.0001)                   F
(PID.TID 0000.0001)     ;
(PID.TID 0000.0001) fluidIsWater =  /* fluid major constituent is Water */
(PID.TID 0000.0001)                   T
(PID.TID 0000.0001)     ;
(PID.TID 0000.0001) usingPCoords =  /* use p (or p*) vertical coordinate */
(PID.TID 0000.0001)                   F
(PID.TID 0000.0001)     ;
(PID.TID 0000.0001) usingZCoords =  /* use z (or z*) vertical coordinate */
(PID.TID 0000.0001)                   T
(PID.TID 0000.0001)     ;
(PID.TID 0000.0001) tRef =   /* Reference temperature profile ( oC or K ) */
(PID.TID 0000.0001)     5 @  1.889000000000000E+01,             /* K =  1:  5 */
(PID.TID 0000.0001)                 1.887000000000000E+01,      /* K =  6 */
(PID.TID 0000.0001)                 1.885000000000000E+01,      /* K =  7 */
(PID.TID 0000.0001)                 1.882000000000000E+01,      /* K =  8 */
(PID.TID 0000.0001)                 1.880000000000000E+01,      /* K =  9 */
(PID.TID 0000.0001)                 1.873000000000000E+01,      /* K = 10 */
(PID.TID 0000.0001)                 1.863000000000000E+01,      /* K = 11 */
(PID.TID 0000.0001)                 1.849000000000000E+01,      /* K = 12 */
(PID.TID 0000.0001)                 1.828000000000000E+01,      /* K = 13 */
(PID.TID 0000.0001)                 1.808000000000000E+01,      /* K = 14 */
(PID.TID 0000.0001)                 1.786000000000000E+01,      /* K = 15 */
(PID.TID 0000.0001)                 1.763000000000000E+01,      /* K = 16 */
(PID.TID 0000.0001)                 1.740000000000000E+01,      /* K = 17 */
(PID.TID 0000.0001)                 1.718000000000000E+01,      /* K = 18 */
(PID.TID 0000.0001)                 1.695000000000000E+01,      /* K = 19 */
(PID.TID 0000.0001)                 1.673000000000000E+01,      /* K = 20 */
(PID.TID 0000.0001)                 1.652000000000000E+01,      /* K = 21 */
(PID.TID 0000.0001)                 1.631000000000000E+01,      /* K = 22 */
(PID.TID 0000.0001)                 1.610000000000000E+01,      /* K = 23 */
(PID.TID 0000.0001)                 1.589000000000000E+01,      /* K = 24 */
(PID.TID 0000.0001)                 1.569000000000000E+01,      /* K = 25 */
(PID.TID 0000.0001)                 1.549000000000000E+01,      /* K = 26 */
(PID.TID 0000.0001)                 1.528000000000000E+01,      /* K = 27 */
(PID.TID 0000.0001)                 1.508000000000000E+01,      /* K = 28 */
(PID.TID 0000.0001)                 1.488000000000000E+01,      /* K = 29 */
(PID.TID 0000.0001)                 1.467000000000000E+01,      /* K = 30 */
(PID.TID 0000.0001)                 1.447000000000000E+01,      /* K = 31 */
(PID.TID 0000.0001)                 1.425000000000000E+01,      /* K = 32 */
(PID.TID 0000.0001)                 1.403000000000000E+01,      /* K = 33 */
(PID.TID 0000.0001)                 1.380000000000000E+01,      /* K = 34 */
(PID.TID 0000.0001)                 1.355000000000000E+01,      /* K = 35 */
(PID.TID 0000.0001)                 1.329000000000000E+01,      /* K = 36 */
(PID.TID 0000.0001)                 1.301000000000000E+01,      /* K = 37 */
(PID.TID 0000.0001)                 1.273000000000000E+01,      /* K = 38 */
(PID.TID 0000.0001)                 1.242000000000000E+01,      /* K = 39 */
(PID.TID 0000.0001)                 1.211000000000000E+01,      /* K = 40 */
(PID.TID 0000.0001)                 1.178000000000000E+01,      /* K = 41 */
(PID.TID 0000.0001)                 1.143000000000000E+01,      /* K = 42 */
(PID.TID 0000.0001)                 1.107000000000000E+01,      /* K = 43 */
(PID.TID 0000.0001)                 1.070000000000000E+01,      /* K = 44 */
(PID.TID 0000.0001)                 1.031000000000000E+01,      /* K = 45 */
(PID.TID 0000.0001)                 9.930000000000000E+00,      /* K = 46 */
(PID.TID 0000.0001)                 9.529999999999999E+00,      /* K = 47 */
(PID.TID 0000.0001)                 9.109999999999999E+00,      /* K = 48 */
(PID.TID 0000.0001)                 8.710000000000001E+00,      /* K = 49 */
(PID.TID 0000.0001)                 8.289999999999999E+00,      /* K = 50 */
(PID.TID 0000.0001)                 7.890000000000000E+00,      /* K = 51 */
(PID.TID 0000.0001)                 7.510000000000000E+00,      /* K = 52 */
(PID.TID 0000.0001)                 7.130000000000000E+00,      /* K = 53 */
(PID.TID 0000.0001)                 6.780000000000000E+00,      /* K = 54 */
(PID.TID 0000.0001)                 6.440000000000000E+00,      /* K = 55 */
(PID.TID 0000.0001)                 6.110000000000000E+00,      /* K = 56 */
(PID.TID 0000.0001)                 5.810000000000000E+00,      /* K = 57 */
(PID.TID 0000.0001)                 5.510000000000000E+00,      /* K = 58 */
(PID.TID 0000.0001)                 5.230000000000000E+00,      /* K = 59 */
(PID.TID 0000.0001)                 4.970000000000000E+00,      /* K = 60 */
(PID.TID 0000.0001)                 4.730000000000000E+00,      /* K = 61 */
(PID.TID 0000.0001)                 4.510000000000000E+00,      /* K = 62 */
(PID.TID 0000.0001)                 4.300000000000000E+00,      /* K = 63 */
(PID.TID 0000.0001)                 4.110000000000000E+00,      /* K = 64 */
(PID.TID 0000.0001)                 3.940000000000000E+00,      /* K = 65 */
(PID.TID 0000.0001)                 3.780000000000000E+00,      /* K = 66 */
(PID.TID 0000.0001)                 3.630000000000000E+00,      /* K = 67 */
(PID.TID 0000.0001)                 3.500000000000000E+00,      /* K = 68 */
(PID.TID 0000.0001)                 3.380000000000000E+00,      /* K = 69 */
(PID.TID 0000.0001)                 3.250000000000000E+00,      /* K = 70 */
(PID.TID 0000.0001)                 3.140000000000000E+00,      /* K = 71 */
(PID.TID 0000.0001)                 3.040000000000000E+00,      /* K = 72 */
(PID.TID 0000.0001)                 2.940000000000000E+00,      /* K = 73 */
(PID.TID 0000.0001)                 2.830000000000000E+00,      /* K = 74 */
(PID.TID 0000.0001)                 2.740000000000000E+00,      /* K = 75 */
(PID.TID 0000.0001)                 2.640000000000000E+00,      /* K = 76 */
(PID.TID 0000.0001)                 2.540000000000000E+00,      /* K = 77 */
(PID.TID 0000.0001)                 2.450000000000000E+00,      /* K = 78 */
(PID.TID 0000.0001)                 2.360000000000000E+00,      /* K = 79 */
(PID.TID 0000.0001)                 2.270000000000000E+00,      /* K = 80 */
(PID.TID 0000.0001)                 2.190000000000000E+00,      /* K = 81 */
(PID.TID 0000.0001)                 2.100000000000000E+00,      /* K = 82 */
(PID.TID 0000.0001)                 2.030000000000000E+00,      /* K = 83 */
(PID.TID 0000.0001)                 1.950000000000000E+00,      /* K = 84 */
(PID.TID 0000.0001)                 1.860000000000000E+00,      /* K = 85 */
(PID.TID 0000.0001)                 1.780000000000000E+00,      /* K = 86 */
(PID.TID 0000.0001)                 1.700000000000000E+00,      /* K = 87 */
(PID.TID 0000.0001)                 1.630000000000000E+00,      /* K = 88 */
(PID.TID 0000.0001)                 1.550000000000000E+00,      /* K = 89 */
(PID.TID 0000.0001)                 1.480000000000000E+00,      /* K = 90 */
(PID.TID 0000.0001)                 1.410000000000000E+00,      /* K = 91 */
(PID.TID 0000.0001)                 1.340000000000000E+00,      /* K = 92 */
(PID.TID 0000.0001)                 1.270000000000000E+00,      /* K = 93 */
(PID.TID 0000.0001)                 1.200000000000000E+00,      /* K = 94 */
(PID.TID 0000.0001)                 1.130000000000000E+00,      /* K = 95 */
(PID.TID 0000.0001)                 1.060000000000000E+00,      /* K = 96 */
(PID.TID 0000.0001)                 1.000000000000000E+00,      /* K = 97 */
(PID.TID 0000.0001)                 9.600000000000000E-01,      /* K = 98 */
(PID.TID 0000.0001)                 9.300000000000000E-01,      /* K = 99 */
(PID.TID 0000.0001)                 9.100000000000000E-01       /* K =100 */
(PID.TID 0000.0001)     ;
(PID.TID 0000.0001) sRef =   /* Reference salinity profile ( psu ) */
(PID.TID 0000.0001)     6 @  3.484000000000000E+01,             /* K =  1:  6 */
(PID.TID 0000.0001)     3 @  3.485000000000000E+01,             /* K =  7:  9 */
(PID.TID 0000.0001)                 3.486000000000000E+01,      /* K = 10 */
(PID.TID 0000.0001)                 3.487000000000000E+01,      /* K = 11 */
(PID.TID 0000.0001)                 3.488000000000000E+01,      /* K = 12 */
(PID.TID 0000.0001)                 3.490000000000000E+01,      /* K = 13 */
(PID.TID 0000.0001)                 3.491000000000000E+01,      /* K = 14 */
(PID.TID 0000.0001)                 3.493000000000000E+01,      /* K = 15 */
(PID.TID 0000.0001)                 3.495000000000000E+01,      /* K = 16 */
(PID.TID 0000.0001)                 3.496000000000000E+01,      /* K = 17 */
(PID.TID 0000.0001)                 3.498000000000000E+01,      /* K = 18 */
(PID.TID 0000.0001)                 3.499000000000000E+01,      /* K = 19 */
(PID.TID 0000.0001)                 3.500000000000000E+01,      /* K = 20 */
(PID.TID 0000.0001)                 3.501000000000000E+01,      /* K = 21 */
(PID.TID 0000.0001)                 3.502000000000000E+01,      /* K = 22 */
(PID.TID 0000.0001)                 3.503000000000000E+01,      /* K = 23 */
(PID.TID 0000.0001)                 3.504000000000000E+01,      /* K = 24 */
(PID.TID 0000.0001)                 3.505000000000000E+01,      /* K = 25 */
(PID.TID 0000.0001)                 3.506000000000000E+01,      /* K = 26 */
(PID.TID 0000.0001)     7 @  3.507000000000000E+01,             /* K = 27: 33 */
(PID.TID 0000.0001)                 3.506000000000000E+01,      /* K = 34 */
(PID.TID 0000.0001)                 3.505000000000000E+01,      /* K = 35 */
(PID.TID 0000.0001)                 3.504000000000000E+01,      /* K = 36 */
(PID.TID 0000.0001)                 3.503000000000000E+01,      /* K = 37 */
(PID.TID 0000.0001)                 3.502000000000000E+01,      /* K = 38 */
(PID.TID 0000.0001)                 3.501000000000000E+01,      /* K = 39 */
(PID.TID 0000.0001)                 3.499000000000000E+01,      /* K = 40 */
(PID.TID 0000.0001)                 3.497000000000000E+01,      /* K = 41 */
(PID.TID 0000.0001)                 3.495000000000000E+01,      /* K = 42 */
(PID.TID 0000.0001)                 3.492000000000000E+01,      /* K = 43 */
(PID.TID 0000.0001)                 3.490000000000000E+01,      /* K = 44 */
(PID.TID 0000.0001)                 3.487000000000000E+01,      /* K = 45 */
(PID.TID 0000.0001)                 3.484000000000000E+01,      /* K = 46 */
(PID.TID 0000.0001)                 3.481000000000000E+01,      /* K = 47 */
(PID.TID 0000.0001)                 3.478000000000000E+01,      /* K = 48 */
(PID.TID 0000.0001)                 3.475000000000000E+01,      /* K = 49 */
(PID.TID 0000.0001)                 3.472000000000000E+01,      /* K = 50 */
(PID.TID 0000.0001)                 3.469000000000000E+01,      /* K = 51 */
(PID.TID 0000.0001)                 3.467000000000000E+01,      /* K = 52 */
(PID.TID 0000.0001)                 3.465000000000000E+01,      /* K = 53 */
(PID.TID 0000.0001)                 3.462000000000000E+01,      /* K = 54 */
(PID.TID 0000.0001)                 3.461000000000000E+01,      /* K = 55 */
(PID.TID 0000.0001)                 3.460000000000000E+01,      /* K = 56 */
(PID.TID 0000.0001)     2 @  3.459000000000000E+01,             /* K = 57: 58 */
(PID.TID 0000.0001)                 3.458000000000000E+01,      /* K = 59 */
(PID.TID 0000.0001)     2 @  3.459000000000000E+01,             /* K = 60: 61 */
(PID.TID 0000.0001)     2 @  3.460000000000000E+01,             /* K = 62: 63 */
(PID.TID 0000.0001)                 3.461000000000000E+01,      /* K = 64 */
(PID.TID 0000.0001)                 3.462000000000000E+01,      /* K = 65 */
(PID.TID 0000.0001)                 3.463000000000000E+01,      /* K = 66 */
(PID.TID 0000.0001)                 3.464000000000000E+01,      /* K = 67 */
(PID.TID 0000.0001)                 3.465000000000000E+01,      /* K = 68 */
(PID.TID 0000.0001)                 3.466000000000000E+01,      /* K = 69 */
(PID.TID 0000.0001)     2 @  3.467000000000000E+01,             /* K = 70: 71 */
(PID.TID 0000.0001)                 3.468000000000000E+01,      /* K = 72 */
(PID.TID 0000.0001)                 3.469000000000000E+01,      /* K = 73 */
(PID.TID 0000.0001)                 3.470000000000000E+01,      /* K = 74 */
(PID.TID 0000.0001)     2 @  3.471000000000000E+01,             /* K = 75: 76 */
(PID.TID 0000.0001)     2 @  3.472000000000000E+01,             /* K = 77: 78 */
(PID.TID 0000.0001)     3 @  3.473000000000000E+01,             /* K = 79: 81 */
(PID.TID 0000.0001)     4 @  3.474000000000000E+01,             /* K = 82: 85 */
(PID.TID 0000.0001)                 3.475000000000000E+01,      /* K = 86 */
(PID.TID 0000.0001)     8 @  3.474000000000000E+01,             /* K = 87: 94 */
(PID.TID 0000.0001)     6 @  3.473000000000000E+01              /* K = 95:100 */
(PID.TID 0000.0001)     ;
(PID.TID 0000.0001) useStrainTensionVisc= /* Use StrainTension Form of Viscous Operator */
(PID.TID 0000.0001)                   F
(PID.TID 0000.0001)     ;
(PID.TID 0000.0001) useVariableVisc = /* Use variable horizontal viscosity */
(PID.TID 0000.0001)                   T
(PID.TID 0000.0001)     ;
(PID.TID 0000.0001) useHarmonicVisc = /* Use harmonic horizontal viscosity */
(PID.TID 0000.0001)                   F
(PID.TID 0000.0001)     ;
(PID.TID 0000.0001) useBiharmonicVisc= /* Use biharmonic horiz.  viscosity */
(PID.TID 0000.0001)                   T
(PID.TID 0000.0001)     ;
(PID.TID 0000.0001) useSmag3D = /* Use isotropic 3-D Smagorinsky viscosity */
(PID.TID 0000.0001)                   F
(PID.TID 0000.0001)     ;
(PID.TID 0000.0001) viscAh  =   /* Lateral harmonic viscosity ( m^2/s ) */
(PID.TID 0000.0001)                 0.000000000000000E+00
(PID.TID 0000.0001)     ;
(PID.TID 0000.0001) viscAhMax = /* Maximum lateral harmonic viscosity ( m^2/s ) */
(PID.TID 0000.0001)                 1.000000000000000E+21
(PID.TID 0000.0001)     ;
(PID.TID 0000.0001) viscAhGrid = /* Grid dependent lateral harmonic viscosity ( non-dim. ) */
(PID.TID 0000.0001)                 0.000000000000000E+00
(PID.TID 0000.0001)     ;
(PID.TID 0000.0001) useFullLeith = /* Use Full Form of Leith Viscosity on/off flag*/
(PID.TID 0000.0001)                   F
(PID.TID 0000.0001)     ;
(PID.TID 0000.0001) useAreaViscLength = /* Use area for visc length instead of geom. mean*/
(PID.TID 0000.0001)                   T
(PID.TID 0000.0001)     ;
(PID.TID 0000.0001) viscC2leith = /* Leith harmonic visc. factor (on grad(vort),non-dim.) */
(PID.TID 0000.0001)                 0.000000000000000E+00
(PID.TID 0000.0001)     ;
(PID.TID 0000.0001) viscC2leithD = /* Leith harmonic viscosity factor (on grad(div),non-dim.)*/
(PID.TID 0000.0001)                 0.000000000000000E+00
(PID.TID 0000.0001)     ;
(PID.TID 0000.0001) viscC2smag = /* Smagorinsky harmonic viscosity factor (non-dim.) */
(PID.TID 0000.0001)                 0.000000000000000E+00
(PID.TID 0000.0001)     ;
(PID.TID 0000.0001) viscA4  =   /* Lateral biharmonic viscosity ( m^4/s ) */
(PID.TID 0000.0001)                 0.000000000000000E+00
(PID.TID 0000.0001)     ;
(PID.TID 0000.0001) viscA4Max = /* Maximum biharmonic viscosity ( m^2/s ) */
(PID.TID 0000.0001)                 1.000000000000000E+21
(PID.TID 0000.0001)     ;
(PID.TID 0000.0001) viscA4Grid = /* Grid dependent biharmonic viscosity ( non-dim. ) */
(PID.TID 0000.0001)                 0.000000000000000E+00
(PID.TID 0000.0001)     ;
(PID.TID 0000.0001) viscC4leith = /* Leith biharm viscosity factor (on grad(vort), non-dim.)*/
(PID.TID 0000.0001)                 2.000000000000000E+00
(PID.TID 0000.0001)     ;
(PID.TID 0000.0001) viscC4leithD = /* Leith biharm viscosity factor (on grad(div), non-dim.) */
(PID.TID 0000.0001)                 2.000000000000000E+00
(PID.TID 0000.0001)     ;
(PID.TID 0000.0001) viscC4Smag = /* Smagorinsky biharm viscosity factor (non-dim) */
(PID.TID 0000.0001)                 0.000000000000000E+00
(PID.TID 0000.0001)     ;
(PID.TID 0000.0001) no_slip_sides =  /* Viscous BCs: No-slip sides */
(PID.TID 0000.0001)                   T
(PID.TID 0000.0001)     ;
(PID.TID 0000.0001) sideDragFactor = /* side-drag scaling factor (non-dim) */
(PID.TID 0000.0001)                 2.000000000000000E+00
(PID.TID 0000.0001)     ;
(PID.TID 0000.0001) viscArNr = /* vertical profile of vertical viscosity ( m^2/s )*/
(PID.TID 0000.0001)   100 @  5.000000000000000E-04              /* K =  1:100 */
(PID.TID 0000.0001)     ;
(PID.TID 0000.0001) no_slip_bottom =  /* Viscous BCs: No-slip bottom */
(PID.TID 0000.0001)                   T
(PID.TID 0000.0001)     ;
(PID.TID 0000.0001) bottomVisc_pCell = /* Partial-cell in bottom Visc. BC */
(PID.TID 0000.0001)                   F
(PID.TID 0000.0001)     ;
(PID.TID 0000.0001) bottomDragLinear = /* linear bottom-drag coefficient ( m/s ) */
(PID.TID 0000.0001)                 0.000000000000000E+00
(PID.TID 0000.0001)     ;
(PID.TID 0000.0001) bottomDragQuadratic = /* quadratic bottom-drag coefficient (-) */
(PID.TID 0000.0001)                 2.000000000000000E-03
(PID.TID 0000.0001)     ;
(PID.TID 0000.0001) selectBotDragQuadr = /* select quadratic bottom drag options */
(PID.TID 0000.0001)                       0
(PID.TID 0000.0001)     ;
(PID.TID 0000.0001) diffKhT =   /* Laplacian diffusion of heat laterally ( m^2/s ) */
(PID.TID 0000.0001)                 0.000000000000000E+00
(PID.TID 0000.0001)     ;
(PID.TID 0000.0001) diffK4T =   /* Biharmonic diffusion of heat laterally ( m^4/s ) */
(PID.TID 0000.0001)                 0.000000000000000E+00
(PID.TID 0000.0001)     ;
(PID.TID 0000.0001) diffKhS =   /* Laplacian diffusion of salt laterally ( m^2/s ) */
(PID.TID 0000.0001)                 0.000000000000000E+00
(PID.TID 0000.0001)     ;
(PID.TID 0000.0001) diffK4S =   /* Biharmonic diffusion of salt laterally ( m^4/s ) */
(PID.TID 0000.0001)                 0.000000000000000E+00
(PID.TID 0000.0001)     ;
(PID.TID 0000.0001) diffKrNrT = /* vertical profile of vertical diffusion of Temp ( m^2/s )*/
(PID.TID 0000.0001)   100 @  1.000000000000000E-05              /* K =  1:100 */
(PID.TID 0000.0001)     ;
(PID.TID 0000.0001) diffKrNrS = /* vertical profile of vertical diffusion of Salt ( m^2/s )*/
(PID.TID 0000.0001)   100 @  1.000000000000000E-05              /* K =  1:100 */
(PID.TID 0000.0001)     ;
(PID.TID 0000.0001) diffKrBL79surf = /* Surface diffusion for Bryan and Lewis 79 ( m^2/s ) */
(PID.TID 0000.0001)                 0.000000000000000E+00
(PID.TID 0000.0001)     ;
(PID.TID 0000.0001) diffKrBL79deep = /* Deep diffusion for Bryan and Lewis 1979 ( m^2/s ) */
(PID.TID 0000.0001)                 0.000000000000000E+00
(PID.TID 0000.0001)     ;
(PID.TID 0000.0001) diffKrBL79scl = /* Depth scale for Bryan and Lewis 1979 ( m ) */
(PID.TID 0000.0001)                 2.000000000000000E+02
(PID.TID 0000.0001)     ;
(PID.TID 0000.0001) diffKrBL79Ho = /* Turning depth for Bryan and Lewis 1979 ( m ) */
(PID.TID 0000.0001)                -2.000000000000000E+03
(PID.TID 0000.0001)     ;
(PID.TID 0000.0001) ivdc_kappa = /* Implicit Vertical Diffusivity for Convection ( m^2/s) */
(PID.TID 0000.0001)                 0.000000000000000E+00
(PID.TID 0000.0001)     ;
(PID.TID 0000.0001) hMixCriteria=  /* Criteria for mixed-layer diagnostic */
(PID.TID 0000.0001)                -8.000000000000000E-01
(PID.TID 0000.0001)     ;
(PID.TID 0000.0001) dRhoSmall =  /* Parameter for mixed-layer diagnostic */
(PID.TID 0000.0001)                 1.000000000000000E-06
(PID.TID 0000.0001)     ;
(PID.TID 0000.0001) hMixSmooth=  /* Smoothing parameter for mixed-layer diagnostic */
(PID.TID 0000.0001)                 0.000000000000000E+00
(PID.TID 0000.0001)     ;
(PID.TID 0000.0001) eosType =  /* Type of Equation of State */
(PID.TID 0000.0001)               'JMD95Z'
(PID.TID 0000.0001)     ;
(PID.TID 0000.0001) selectP_inEOS_Zc = /* select pressure to use in EOS (0,1,2,3) */
(PID.TID 0000.0001)                       0
(PID.TID 0000.0001)     0= -g*rhoConst*z ; 1= pRef (from tRef,sRef); 2= Hyd P ; 3= Hyd+NH P
(PID.TID 0000.0001)     ;
(PID.TID 0000.0001) HeatCapacity_Cp =  /* Specific heat capacity ( J/kg/K ) */
(PID.TID 0000.0001)                 3.994000000000000E+03
(PID.TID 0000.0001)     ;
(PID.TID 0000.0001) celsius2K = /* 0 degree Celsius converted to Kelvin ( K ) */
(PID.TID 0000.0001)                 2.731500000000000E+02
(PID.TID 0000.0001)     ;
(PID.TID 0000.0001) rhoConst  = /* Reference density (Boussinesq)  ( kg/m^3 ) */
(PID.TID 0000.0001)                 1.029000000000000E+03
(PID.TID 0000.0001)     ;
(PID.TID 0000.0001) rhoFacC = /* normalized Reference density @ cell-Center (-) */
(PID.TID 0000.0001)   100 @  1.000000000000000E+00              /* K =  1:100 */
(PID.TID 0000.0001)     ;
(PID.TID 0000.0001) rhoFacF = /* normalized Reference density @ W-Interface (-) */
(PID.TID 0000.0001)   101 @  1.000000000000000E+00              /* K =  1:101 */
(PID.TID 0000.0001)     ;
(PID.TID 0000.0001) rhoConstFresh = /* Fresh-water reference density ( kg/m^3 ) */
(PID.TID 0000.0001)                 1.000000000000000E+03
(PID.TID 0000.0001)     ;
(PID.TID 0000.0001) gravity =   /* Gravitational acceleration ( m/s^2 ) */
(PID.TID 0000.0001)                 9.810000000000000E+00
(PID.TID 0000.0001)     ;
(PID.TID 0000.0001) gBaro =   /* Barotropic gravity ( m/s^2 ) */
(PID.TID 0000.0001)                 9.810000000000000E+00
(PID.TID 0000.0001)     ;
(PID.TID 0000.0001) gravFacC = /* gravity factor (vs surf.) @ cell-Center (-) */
(PID.TID 0000.0001)   100 @  1.000000000000000E+00              /* K =  1:100 */
(PID.TID 0000.0001)     ;
(PID.TID 0000.0001) gravFacF = /* gravity factor (vs surf.) @ W-Interface (-) */
(PID.TID 0000.0001)   101 @  1.000000000000000E+00              /* K =  1:101 */
(PID.TID 0000.0001)     ;
(PID.TID 0000.0001) rotationPeriod =   /* Rotation Period ( s ) */
(PID.TID 0000.0001)                 8.616400000000000E+04
(PID.TID 0000.0001)     ;
(PID.TID 0000.0001) omega =   /* Angular velocity ( rad/s ) */
(PID.TID 0000.0001)                 7.292123516990375E-05
(PID.TID 0000.0001)     ;
(PID.TID 0000.0001) f0 =   /* Reference coriolis parameter ( 1/s ) */
(PID.TID 0000.0001)                 1.000000000000000E-04
(PID.TID 0000.0001)     ;
(PID.TID 0000.0001) beta =   /* Beta ( 1/(m.s) ) */
(PID.TID 0000.0001)                 9.999999999999999E-12
(PID.TID 0000.0001)     ;
(PID.TID 0000.0001) fPrime =   /* Second coriolis parameter ( 1/s ) */
(PID.TID 0000.0001)                 0.000000000000000E+00
(PID.TID 0000.0001)     ;
(PID.TID 0000.0001) rigidLid =   /* Rigid lid on/off flag */
(PID.TID 0000.0001)                   F
(PID.TID 0000.0001)     ;
(PID.TID 0000.0001) implicitFreeSurface =   /* Implicit free surface on/off flag */
(PID.TID 0000.0001)                   T
(PID.TID 0000.0001)     ;
(PID.TID 0000.0001) freeSurfFac =   /* Implicit free surface factor */
(PID.TID 0000.0001)                 1.000000000000000E+00
(PID.TID 0000.0001)     ;
(PID.TID 0000.0001) implicSurfPress =  /* Surface Pressure implicit factor (0-1)*/
(PID.TID 0000.0001)                 1.000000000000000E+00
(PID.TID 0000.0001)     ;
(PID.TID 0000.0001) implicDiv2DFlow =  /* Barot. Flow Div. implicit factor (0-1)*/
(PID.TID 0000.0001)                 1.000000000000000E+00
(PID.TID 0000.0001)     ;
(PID.TID 0000.0001) uniformLin_PhiSurf = /* use uniform Bo_surf on/off flag*/
(PID.TID 0000.0001)                   T
(PID.TID 0000.0001)     ;
(PID.TID 0000.0001) uniformFreeSurfLev = /* free-surface level-index is uniform */
(PID.TID 0000.0001)                   T
(PID.TID 0000.0001)     ;
(PID.TID 0000.0001) hFacMin =   /* minimum partial cell factor (hFac) */
(PID.TID 0000.0001)                 2.000000000000000E-01
(PID.TID 0000.0001)     ;
(PID.TID 0000.0001) hFacMinDr = /* minimum partial cell thickness ( m) */
(PID.TID 0000.0001)                 5.000000000000000E+00
(PID.TID 0000.0001)     ;
(PID.TID 0000.0001) exactConserv =  /* Exact Volume Conservation on/off flag*/
(PID.TID 0000.0001)                   T
(PID.TID 0000.0001)     ;
(PID.TID 0000.0001) linFSConserveTr = /* Tracer correction for Lin Free Surface on/off flag*/
(PID.TID 0000.0001)                   F
(PID.TID 0000.0001)     ;
(PID.TID 0000.0001) nonlinFreeSurf = /* Non-linear Free Surf. options (-1,0,1,2,3)*/
(PID.TID 0000.0001)                       0
(PID.TID 0000.0001)      -1,0= Off ; 1,2,3= On, 2=+rescale gU,gV, 3=+update cg2d solv.
(PID.TID 0000.0001)     ;
(PID.TID 0000.0001) hFacInf =   /* lower threshold for hFac (nonlinFreeSurf only)*/
(PID.TID 0000.0001)                 2.000000000000000E-01
(PID.TID 0000.0001)     ;
(PID.TID 0000.0001) hFacSup =   /* upper threshold for hFac (nonlinFreeSurf only)*/
(PID.TID 0000.0001)                 2.000000000000000E+00
(PID.TID 0000.0001)     ;
(PID.TID 0000.0001) select_rStar = /* r* Vertical coord. options (=0 r coord.; >0 uses r*)*/
(PID.TID 0000.0001)                       0
(PID.TID 0000.0001)     ;
(PID.TID 0000.0001) useRealFreshWaterFlux = /* Real Fresh Water Flux on/off flag*/
(PID.TID 0000.0001)                   F
(PID.TID 0000.0001)     ;
(PID.TID 0000.0001) temp_EvPrRn = /* Temp. of Evap/Prec/R (UNSET=use local T)(oC)*/
(PID.TID 0000.0001)                 0.000000000000000E+00
(PID.TID 0000.0001)     ;
(PID.TID 0000.0001) salt_EvPrRn = /* Salin. of Evap/Prec/R (UNSET=use local S)(psu)*/
(PID.TID 0000.0001)                 0.000000000000000E+00
(PID.TID 0000.0001)     ;
(PID.TID 0000.0001) selectAddFluid = /* option for mass source/sink of fluid (=0: off) */
(PID.TID 0000.0001)                       0
(PID.TID 0000.0001)     ;
(PID.TID 0000.0001) temp_addMass = /* Temp. of addMass array (UNSET=use local T)(oC)*/
(PID.TID 0000.0001)                 0.000000000000000E+00
(PID.TID 0000.0001)     ;
(PID.TID 0000.0001) salt_addMass = /* Salin. of addMass array (UNSET=use local S)(psu)*/
(PID.TID 0000.0001)                 0.000000000000000E+00
(PID.TID 0000.0001)     ;
(PID.TID 0000.0001) convertFW2Salt = /* convert F.W. Flux to Salt Flux (-1=use local S)(psu)*/
(PID.TID 0000.0001)                -1.000000000000000E+00
(PID.TID 0000.0001)     ;
(PID.TID 0000.0001) use3Dsolver = /* use 3-D pressure solver on/off flag */
(PID.TID 0000.0001)                   F
(PID.TID 0000.0001)     ;
(PID.TID 0000.0001) nonHydrostatic =  /* Non-Hydrostatic on/off flag */
(PID.TID 0000.0001)                   F
(PID.TID 0000.0001)     ;
(PID.TID 0000.0001) nh_Am2 = /* Non-Hydrostatic terms scaling factor */
(PID.TID 0000.0001)                 1.000000000000000E+00
(PID.TID 0000.0001)     ;
(PID.TID 0000.0001) implicitNHPress = /* Non-Hyd Pressure implicit factor (0-1)*/
(PID.TID 0000.0001)                 1.000000000000000E+00
(PID.TID 0000.0001)     ;
(PID.TID 0000.0001) selectNHfreeSurf = /* Non-Hyd (free-)Surface option */
(PID.TID 0000.0001)                       0
(PID.TID 0000.0001)     ;
(PID.TID 0000.0001) quasiHydrostatic = /* Quasi-Hydrostatic on/off flag */
(PID.TID 0000.0001)                   F
(PID.TID 0000.0001)     ;
(PID.TID 0000.0001) calc_wVelocity = /* vertical velocity calculation on/off flag */
(PID.TID 0000.0001)                   T
(PID.TID 0000.0001)     ;
(PID.TID 0000.0001) momStepping =  /* Momentum equation on/off flag */
(PID.TID 0000.0001)                   T
(PID.TID 0000.0001)     ;
(PID.TID 0000.0001) vectorInvariantMomentum= /* Vector-Invariant Momentum on/off */
(PID.TID 0000.0001)                   T
(PID.TID 0000.0001)     ;
(PID.TID 0000.0001) momAdvection =  /* Momentum advection on/off flag */
(PID.TID 0000.0001)                   T
(PID.TID 0000.0001)     ;
(PID.TID 0000.0001) momViscosity =  /* Momentum viscosity on/off flag */
(PID.TID 0000.0001)                   T
(PID.TID 0000.0001)     ;
(PID.TID 0000.0001) momImplVertAdv= /* Momentum implicit vert. advection on/off*/
(PID.TID 0000.0001)                   F
(PID.TID 0000.0001)     ;
(PID.TID 0000.0001) implicitViscosity = /* Implicit viscosity on/off flag */
(PID.TID 0000.0001)                   T
(PID.TID 0000.0001)     ;
(PID.TID 0000.0001) selectImplicitDrag= /* Implicit bot Drag options (0,1,2)*/
(PID.TID 0000.0001)                       0
(PID.TID 0000.0001)     0= Expl. ; 1= Impl. on provis. Vel ; 2= Fully Impl (with surf.P)
(PID.TID 0000.0001)     ;
(PID.TID 0000.0001) metricTerms =  /* metric-Terms on/off flag */
(PID.TID 0000.0001)                   T
(PID.TID 0000.0001)     ;
(PID.TID 0000.0001) useNHMTerms = /* Non-Hydrostatic Metric-Terms on/off */
(PID.TID 0000.0001)                   F
(PID.TID 0000.0001)     ;
(PID.TID 0000.0001) selectCoriMap = /* Coriolis Map options (0,1,2,3)*/
(PID.TID 0000.0001)                       2
(PID.TID 0000.0001)     0= f-Plane ; 1= Beta-Plane ; 2= Spherical ; 3= read from file
(PID.TID 0000.0001)     ;
(PID.TID 0000.0001) use3dCoriolis = /* 3-D Coriolis on/off flag */
(PID.TID 0000.0001)                   F
(PID.TID 0000.0001)     ;
(PID.TID 0000.0001) useCoriolis =  /* Coriolis on/off flag */
(PID.TID 0000.0001)                   T
(PID.TID 0000.0001)     ;
(PID.TID 0000.0001) useCDscheme =  /* CD scheme on/off flag */
(PID.TID 0000.0001)                   F
(PID.TID 0000.0001)     ;
(PID.TID 0000.0001) useEnergyConservingCoriolis= /* Flx-Form Coriolis scheme flag */
(PID.TID 0000.0001)                   F
(PID.TID 0000.0001)     ;
(PID.TID 0000.0001) useJamartWetPoints= /* Coriolis WetPoints method flag */
(PID.TID 0000.0001)                   F
(PID.TID 0000.0001)     ;
(PID.TID 0000.0001) useJamartMomAdv= /* V.I Non-linear terms Jamart flag */
(PID.TID 0000.0001)                   F
(PID.TID 0000.0001)     ;
(PID.TID 0000.0001) useAbsVorticity= /* V.I Works with f+zeta in Coriolis */
(PID.TID 0000.0001)                   F
(PID.TID 0000.0001)     ;
(PID.TID 0000.0001) selectVortScheme= /* V.I Scheme selector for Vorticity-Term */
(PID.TID 0000.0001)                       0
(PID.TID 0000.0001)    = 0 : enstrophy (Shallow-Water Eq.) conserving scheme by Sadourny, JAS 75
(PID.TID 0000.0001)    = 1 : same as 0 with modified hFac
(PID.TID 0000.0001)    = 2 : energy conserving scheme (used by Sadourny in JAS 75 paper)
(PID.TID 0000.0001)    = 3 : energy (general) and enstrophy (2D, nonDiv.) conserving scheme
(PID.TID 0000.0001)          from Sadourny (Burridge & Haseler, ECMWF Rep.4, 1977)
(PID.TID 0000.0001)     ;
(PID.TID 0000.0001) upwindVorticity= /* V.I Upwind bias vorticity flag */
(PID.TID 0000.0001)                   F
(PID.TID 0000.0001)     ;
(PID.TID 0000.0001) highOrderVorticity= /* V.I High order vort. advect. flag */
(PID.TID 0000.0001)                   T
(PID.TID 0000.0001)     ;
(PID.TID 0000.0001) upwindShear= /* V.I Upwind vertical Shear advection flag */
(PID.TID 0000.0001)                   F
(PID.TID 0000.0001)     ;
(PID.TID 0000.0001) selectKEscheme= /* V.I Kinetic Energy scheme selector */
(PID.TID 0000.0001)                       0
(PID.TID 0000.0001)     ;
(PID.TID 0000.0001) momForcing =  /* Momentum forcing on/off flag */
(PID.TID 0000.0001)                   T
(PID.TID 0000.0001)     ;
(PID.TID 0000.0001) momTidalForcing = /* Momentum Tidal forcing on/off flag */
(PID.TID 0000.0001)                   T
(PID.TID 0000.0001)     ;
(PID.TID 0000.0001) momPressureForcing =  /* Momentum pressure term on/off flag */
(PID.TID 0000.0001)                   T
(PID.TID 0000.0001)     ;
(PID.TID 0000.0001) implicitIntGravWave= /* Implicit Internal Gravity Wave flag */
(PID.TID 0000.0001)                   F
(PID.TID 0000.0001)     ;
(PID.TID 0000.0001) staggerTimeStep =    /* Stagger time stepping on/off flag */
(PID.TID 0000.0001)                   T
(PID.TID 0000.0001)     ;
(PID.TID 0000.0001) doResetHFactors = /* reset thickness factors @ each time-step */
(PID.TID 0000.0001)                   F
(PID.TID 0000.0001)     ;
(PID.TID 0000.0001) multiDimAdvection =  /* enable/disable Multi-Dim Advection */
(PID.TID 0000.0001)                   T
(PID.TID 0000.0001)     ;
(PID.TID 0000.0001) useMultiDimAdvec =   /* Multi-Dim Advection is/is-not used */
(PID.TID 0000.0001)                   T
(PID.TID 0000.0001)     ;
(PID.TID 0000.0001) implicitDiffusion = /* Implicit Diffusion on/off flag */
(PID.TID 0000.0001)                   T
(PID.TID 0000.0001)     ;
(PID.TID 0000.0001) tempStepping =  /* Temperature equation on/off flag */
(PID.TID 0000.0001)                   T
(PID.TID 0000.0001)     ;
(PID.TID 0000.0001) tempAdvection = /* Temperature advection on/off flag */
(PID.TID 0000.0001)                   T
(PID.TID 0000.0001)     ;
(PID.TID 0000.0001) tempImplVertAdv = /* Temp. implicit vert. advection on/off */
(PID.TID 0000.0001)                   F
(PID.TID 0000.0001)     ;
(PID.TID 0000.0001) tempForcing  =  /* Temperature forcing on/off flag */
(PID.TID 0000.0001)                   T
(PID.TID 0000.0001)     ;
(PID.TID 0000.0001) doThetaClimRelax = /* apply SST relaxation on/off flag */
(PID.TID 0000.0001)                   F
(PID.TID 0000.0001)     ;
(PID.TID 0000.0001) tempIsActiveTr = /* Temp. is a dynamically Active Tracer */
(PID.TID 0000.0001)                   T
(PID.TID 0000.0001)     ;
(PID.TID 0000.0001) saltStepping =  /* Salinity equation on/off flag */
(PID.TID 0000.0001)                   T
(PID.TID 0000.0001)     ;
(PID.TID 0000.0001) saltAdvection = /* Salinity advection on/off flag */
(PID.TID 0000.0001)                   T
(PID.TID 0000.0001)     ;
(PID.TID 0000.0001) saltImplVertAdv = /* Sali. implicit vert. advection on/off */
(PID.TID 0000.0001)                   F
(PID.TID 0000.0001)     ;
(PID.TID 0000.0001) saltForcing  =  /* Salinity forcing on/off flag */
(PID.TID 0000.0001)                   T
(PID.TID 0000.0001)     ;
(PID.TID 0000.0001) doSaltClimRelax = /* apply SSS relaxation on/off flag */
(PID.TID 0000.0001)                   F
(PID.TID 0000.0001)     ;
(PID.TID 0000.0001) saltIsActiveTr = /* Salt  is a dynamically Active Tracer */
(PID.TID 0000.0001)                   T
(PID.TID 0000.0001)     ;
(PID.TID 0000.0001)  readBinaryPrec = /* Precision used for reading binary files */
(PID.TID 0000.0001)                      32
(PID.TID 0000.0001)     ;
(PID.TID 0000.0001) writeBinaryPrec = /* Precision used for writing binary files */
(PID.TID 0000.0001)                      32
(PID.TID 0000.0001)     ;
(PID.TID 0000.0001)  rwSuffixType =   /* select format of mds file suffix */
(PID.TID 0000.0001)                       0
(PID.TID 0000.0001)    = 0 : myIter (I10.10) ;   = 1 : 100*myTime (100th sec) ;
(PID.TID 0000.0001)    = 2 : myTime (seconds);   = 3 : myTime/360 (10th of hr);
(PID.TID 0000.0001)    = 4 : myTime/3600 (hours)
(PID.TID 0000.0001)     ;
(PID.TID 0000.0001)  globalFiles = /* write "global" (=not per tile) files */
(PID.TID 0000.0001)                   T
(PID.TID 0000.0001)     ;
(PID.TID 0000.0001)  useSingleCpuIO = /* only master MPI process does I/O */
(PID.TID 0000.0001)                   T
(PID.TID 0000.0001)     ;
(PID.TID 0000.0001)  useSingleCpuInput = /* only master process reads input */
(PID.TID 0000.0001)                   T
(PID.TID 0000.0001)     ;
(PID.TID 0000.0001) /* debLev[*]  : level of debug & auxiliary message printing */
(PID.TID 0000.0001) debLevZero =  0 ; /* level of disabled aux. msg printing */
(PID.TID 0000.0001)    debLevA =  1 ; /* level of minimum  aux. msg printing */
(PID.TID 0000.0001)    debLevB =  2 ; /* level of low aux. print (report read-file opening)*/
(PID.TID 0000.0001)    debLevC =  3 ; /* level of moderate debug prt (most pkgs debug msg) */
(PID.TID 0000.0001)    debLevD =  4 ; /* level of enhanced debug prt (add DEBUG_STATS prt) */
(PID.TID 0000.0001)    debLevE =  5 ; /* level of extensive debug printing */
(PID.TID 0000.0001) debugLevel =  /* select debug printing level */
(PID.TID 0000.0001)                       2
(PID.TID 0000.0001)     ;
(PID.TID 0000.0001)  plotLevel =  /* select PLOT_FIELD printing level */
(PID.TID 0000.0001)                       2
(PID.TID 0000.0001)     ;
(PID.TID 0000.0001) //
(PID.TID 0000.0001) // Elliptic solver(s) paramters ( PARM02 in namelist )
(PID.TID 0000.0001) //
(PID.TID 0000.0001) cg2dMaxIters =   /* Upper limit on 2d con. grad iterations  */
(PID.TID 0000.0001)                    1000
(PID.TID 0000.0001)     ;
(PID.TID 0000.0001) cg2dChkResFreq =   /* 2d con. grad convergence test frequency */
(PID.TID 0000.0001)                       1
(PID.TID 0000.0001)     ;
(PID.TID 0000.0001) cg2dUseMinResSol= /* use cg2d last-iter(=0) / min-resid.(=1) solution */
(PID.TID 0000.0001)                       0
(PID.TID 0000.0001)     ;
(PID.TID 0000.0001) cg2dTargetResidual =   /* 2d con. grad target residual  */
(PID.TID 0000.0001)                 1.000000000000000E-07
(PID.TID 0000.0001)     ;
(PID.TID 0000.0001) cg2dTargetResWunit =   /* CG2d target residual [W units] */
(PID.TID 0000.0001)                 1.000000000000000E-18
(PID.TID 0000.0001)     ;
(PID.TID 0000.0001) cg2dPreCondFreq =   /* Freq. for updating cg2d preconditioner */
(PID.TID 0000.0001)                       1
(PID.TID 0000.0001)     ;
(PID.TID 0000.0001) useSRCGSolver =  /* use single reduction CG solver(s) */
(PID.TID 0000.0001)                   F
(PID.TID 0000.0001)     ;
(PID.TID 0000.0001) printResidualFreq = /* Freq. for printing CG residual */
(PID.TID 0000.0001)                       0
(PID.TID 0000.0001)     ;
(PID.TID 0000.0001) //
(PID.TID 0000.0001) // Time stepping paramters ( PARM03 in namelist )
(PID.TID 0000.0001) //
(PID.TID 0000.0001) deltaTMom =   /* Momentum equation timestep ( s ) */
(PID.TID 0000.0001)                 2.400000000000000E+02
(PID.TID 0000.0001)     ;
(PID.TID 0000.0001) deltaTFreeSurf = /* FreeSurface equation timestep ( s ) */
(PID.TID 0000.0001)                 2.400000000000000E+02
(PID.TID 0000.0001)     ;
(PID.TID 0000.0001) dTtracerLev =  /* Tracer equation timestep ( s ) */
(PID.TID 0000.0001)   100 @  2.400000000000000E+02              /* K =  1:100 */
(PID.TID 0000.0001)     ;
(PID.TID 0000.0001) deltaTClock  =   /* Model clock timestep ( s ) */
(PID.TID 0000.0001)                 2.400000000000000E+02
(PID.TID 0000.0001)     ;
(PID.TID 0000.0001) cAdjFreq =   /* Convective adjustment interval ( s ) */
(PID.TID 0000.0001)                 0.000000000000000E+00
(PID.TID 0000.0001)     ;
(PID.TID 0000.0001) momForcingOutAB = /* =1: take Momentum Forcing out of Adams-Bash. stepping */
(PID.TID 0000.0001)                       1
(PID.TID 0000.0001)     ;
(PID.TID 0000.0001) tracForcingOutAB = /* =1: take T,S,pTr Forcing out of Adams-Bash. stepping */
(PID.TID 0000.0001)                       1
(PID.TID 0000.0001)     ;
(PID.TID 0000.0001) momDissip_In_AB = /* put Dissipation Tendency in Adams-Bash. stepping */
(PID.TID 0000.0001)                   F
(PID.TID 0000.0001)     ;
(PID.TID 0000.0001) doAB_onGtGs = /* apply AB on Tendencies (rather than on T,S)*/
(PID.TID 0000.0001)                   T
(PID.TID 0000.0001)     ;
(PID.TID 0000.0001) abEps =   /* Adams-Bashforth-2 stabilizing weight */
(PID.TID 0000.0001)                 1.000000000000000E-01
(PID.TID 0000.0001)     ;
(PID.TID 0000.0001) applyExchUV_early = /* Apply EXCH to U,V earlier in time-step */
(PID.TID 0000.0001)                   F
(PID.TID 0000.0001)     ;
(PID.TID 0000.0001) pickupStrictlyMatch= /* stop if pickup do not strictly match */
(PID.TID 0000.0001)                   F
(PID.TID 0000.0001)     ;
(PID.TID 0000.0001) nIter0   =   /* Run starting timestep number */
(PID.TID 0000.0001)                       0
(PID.TID 0000.0001)     ;
(PID.TID 0000.0001) nTimeSteps = /* Number of timesteps */
(PID.TID 0000.0001)                      15
(PID.TID 0000.0001)     ;
(PID.TID 0000.0001) nEndIter =   /* Run ending timestep number */
(PID.TID 0000.0001)                      15
(PID.TID 0000.0001)     ;
(PID.TID 0000.0001) baseTime =   /* Model base time ( s ) */
(PID.TID 0000.0001)                 0.000000000000000E+00
(PID.TID 0000.0001)     ;
(PID.TID 0000.0001) startTime =  /* Run start time ( s ) */
(PID.TID 0000.0001)                 0.000000000000000E+00
(PID.TID 0000.0001)     ;
(PID.TID 0000.0001) endTime  =   /* Integration ending time ( s ) */
(PID.TID 0000.0001)                 3.600000000000000E+03
(PID.TID 0000.0001)     ;
(PID.TID 0000.0001) pChkPtFreq = /* Permanent restart/pickup file interval ( s ) */
(PID.TID 0000.0001)                 8.640000000000000E+05
(PID.TID 0000.0001)     ;
(PID.TID 0000.0001) chkPtFreq  = /* Rolling restart/pickup file interval ( s ) */
(PID.TID 0000.0001)                 0.000000000000000E+00
(PID.TID 0000.0001)     ;
(PID.TID 0000.0001) pickup_write_mdsio =   /* Model IO flag. */
(PID.TID 0000.0001)                   T
(PID.TID 0000.0001)     ;
(PID.TID 0000.0001) pickup_read_mdsio =   /* Model IO flag. */
(PID.TID 0000.0001)                   T
(PID.TID 0000.0001)     ;
(PID.TID 0000.0001) writePickupAtEnd =   /* Model IO flag. */
(PID.TID 0000.0001)                   T
(PID.TID 0000.0001)     ;
(PID.TID 0000.0001) dumpFreq =   /* Model state write out interval ( s ). */
(PID.TID 0000.0001)                 0.000000000000000E+00
(PID.TID 0000.0001)     ;
(PID.TID 0000.0001) dumpInitAndLast= /* write out Initial & Last iter. model state */
(PID.TID 0000.0001)                   F
(PID.TID 0000.0001)     ;
(PID.TID 0000.0001) snapshot_mdsio =   /* Model IO flag. */
(PID.TID 0000.0001)                   T
(PID.TID 0000.0001)     ;
(PID.TID 0000.0001) monitorFreq =   /* Monitor output interval ( s ). */
(PID.TID 0000.0001)                 2.400000000000000E+02
(PID.TID 0000.0001)     ;
(PID.TID 0000.0001) monitorSelect = /* select group of variables to monitor */
(PID.TID 0000.0001)                       3
(PID.TID 0000.0001)     ;
(PID.TID 0000.0001) monitor_stdio =   /* Model IO flag. */
(PID.TID 0000.0001)                   T
(PID.TID 0000.0001)     ;
(PID.TID 0000.0001) externForcingPeriod =   /* forcing period (s) */
(PID.TID 0000.0001)                 0.000000000000000E+00
(PID.TID 0000.0001)     ;
(PID.TID 0000.0001) externForcingCycle =   /* period of the cyle (s). */
(PID.TID 0000.0001)                 0.000000000000000E+00
(PID.TID 0000.0001)     ;
(PID.TID 0000.0001) tauThetaClimRelax =   /* relaxation time scale (s) */
(PID.TID 0000.0001)                 0.000000000000000E+00
(PID.TID 0000.0001)     ;
(PID.TID 0000.0001) tauSaltClimRelax =   /* relaxation time scale (s) */
(PID.TID 0000.0001)                 0.000000000000000E+00
(PID.TID 0000.0001)     ;
(PID.TID 0000.0001) latBandClimRelax =   /* max. Lat. where relaxation */
(PID.TID 0000.0001)                 1.800000000000000E+02
(PID.TID 0000.0001)     ;
(PID.TID 0000.0001) //
(PID.TID 0000.0001) // Gridding paramters ( PARM04 in namelist )
(PID.TID 0000.0001) //
(PID.TID 0000.0001) usingCartesianGrid = /* Cartesian coordinates flag ( True/False ) */
(PID.TID 0000.0001)                   F
(PID.TID 0000.0001)     ;
(PID.TID 0000.0001) usingCylindricalGrid = /* Cylindrical coordinates flag ( True/False ) */
(PID.TID 0000.0001)                   F
(PID.TID 0000.0001)     ;
(PID.TID 0000.0001) usingSphericalPolarGrid = /* Spherical coordinates flag ( True/False ) */
(PID.TID 0000.0001)                   T
(PID.TID 0000.0001)     ;
(PID.TID 0000.0001) usingCurvilinearGrid = /* Curvilinear coordinates flag ( True/False ) */
(PID.TID 0000.0001)                   F
(PID.TID 0000.0001)     ;
(PID.TID 0000.0001) useMin4hFacEdges = /* set hFacW,S as minimum of adjacent hFacC factor */
(PID.TID 0000.0001)                   F
(PID.TID 0000.0001)     ;
(PID.TID 0000.0001) interViscAr_pCell = /* account for partial-cell in interior vert. viscosity */
(PID.TID 0000.0001)                   F
(PID.TID 0000.0001)     ;
(PID.TID 0000.0001) interDiffKr_pCell = /* account for partial-cell in interior vert. diffusion */
(PID.TID 0000.0001)                   F
(PID.TID 0000.0001)     ;
(PID.TID 0000.0001) pCellMix_select = /* option to enhance mixing near surface & bottom */
(PID.TID 0000.0001)                       0
(PID.TID 0000.0001)     ;
(PID.TID 0000.0001) selectSigmaCoord = /* Hybrid-Sigma Vert. Coordinate option */
(PID.TID 0000.0001)                       0
(PID.TID 0000.0001)     ;
(PID.TID 0000.0001) rSigmaBnd = /* r/sigma transition ( units of r ==  m ) */
(PID.TID 0000.0001)                 1.234567000000000E+05
(PID.TID 0000.0001)     ;
(PID.TID 0000.0001) rkSign =   /* index orientation relative to vertical coordinate */
(PID.TID 0000.0001)                -1.000000000000000E+00
(PID.TID 0000.0001)     ;
(PID.TID 0000.0001) gravitySign = /* gravity orientation relative to vertical coordinate */
(PID.TID 0000.0001)                -1.000000000000000E+00
(PID.TID 0000.0001)     ;
(PID.TID 0000.0001) seaLev_Z =  /* reference height of sea-level [m] */
(PID.TID 0000.0001)                 0.000000000000000E+00
(PID.TID 0000.0001)     ;
(PID.TID 0000.0001) top_Pres =  /* reference pressure at the top [Pa] */
(PID.TID 0000.0001)                 0.000000000000000E+00
(PID.TID 0000.0001)     ;
(PID.TID 0000.0001) mass2rUnit = /* convert mass per unit area [kg/m2] to r-units [m] */
(PID.TID 0000.0001)                 9.718172983479105E-04
(PID.TID 0000.0001)     ;
(PID.TID 0000.0001) rUnit2mass = /* convert r-units [m] to mass per unit area [kg/m2] */
(PID.TID 0000.0001)                 1.029000000000000E+03
(PID.TID 0000.0001)     ;
(PID.TID 0000.0001) drC =   /* C spacing ( units of r ) */
(PID.TID 0000.0001)                 2.500000000000000E+00,      /* K =  1 */
(PID.TID 0000.0001)    14 @  5.000000000000000E+00,             /* K =  2: 15 */
(PID.TID 0000.0001)                 5.005000000000000E+00,      /* K = 16 */
(PID.TID 0000.0001)                 5.010000000000000E+00,      /* K = 17 */
(PID.TID 0000.0001)                 5.015000000000000E+00,      /* K = 18 */
(PID.TID 0000.0001)                 5.029999999999999E+00,      /* K = 19 */
(PID.TID 0000.0001)                 5.055000000000000E+00,      /* K = 20 */
(PID.TID 0000.0001)                 5.095000000000001E+00,      /* K = 21 */
(PID.TID 0000.0001)                 5.160000000000000E+00,      /* K = 22 */
(PID.TID 0000.0001)                 5.255000000000000E+00,      /* K = 23 */
(PID.TID 0000.0001)                 5.400000000000000E+00,      /* K = 24 */
(PID.TID 0000.0001)                 5.605000000000000E+00,      /* K = 25 */
(PID.TID 0000.0001)                 5.880000000000000E+00,      /* K = 26 */
(PID.TID 0000.0001)                 6.245000000000000E+00,      /* K = 27 */
(PID.TID 0000.0001)                 6.710000000000000E+00,      /* K = 28 */
(PID.TID 0000.0001)                 7.295000000000000E+00,      /* K = 29 */
(PID.TID 0000.0001)                 8.020000000000000E+00,      /* K = 30 */
(PID.TID 0000.0001)                 8.890000000000001E+00,      /* K = 31 */
(PID.TID 0000.0001)                 9.910000000000000E+00,      /* K = 32 */
(PID.TID 0000.0001)                 1.109000000000000E+01,      /* K = 33 */
(PID.TID 0000.0001)                 1.242500000000000E+01,      /* K = 34 */
(PID.TID 0000.0001)                 1.391500000000000E+01,      /* K = 35 */
(PID.TID 0000.0001)                 1.555000000000000E+01,      /* K = 36 */
(PID.TID 0000.0001)                 1.732000000000000E+01,      /* K = 37 */
(PID.TID 0000.0001)                 1.921000000000000E+01,      /* K = 38 */
(PID.TID 0000.0001)                 2.119500000000000E+01,      /* K = 39 */
(PID.TID 0000.0001)                 2.325000000000000E+01,      /* K = 40 */
(PID.TID 0000.0001)                 2.536000000000000E+01,      /* K = 41 */
(PID.TID 0000.0001)                 2.750000000000000E+01,      /* K = 42 */
(PID.TID 0000.0001)                 2.964000000000000E+01,      /* K = 43 */
(PID.TID 0000.0001)                 3.175000000000000E+01,      /* K = 44 */
(PID.TID 0000.0001)                 3.380500000000000E+01,      /* K = 45 */
(PID.TID 0000.0001)                 3.579000000000000E+01,      /* K = 46 */
(PID.TID 0000.0001)                 3.768000000000000E+01,      /* K = 47 */
(PID.TID 0000.0001)                 3.945000000000000E+01,      /* K = 48 */
(PID.TID 0000.0001)                 4.108499999999999E+01,      /* K = 49 */
(PID.TID 0000.0001)                 4.257500000000000E+01,      /* K = 50 */
(PID.TID 0000.0001)                 4.391000000000000E+01,      /* K = 51 */
(PID.TID 0000.0001)                 4.509000000000000E+01,      /* K = 52 */
(PID.TID 0000.0001)                 4.611000000000000E+01,      /* K = 53 */
(PID.TID 0000.0001)                 4.698000000000000E+01,      /* K = 54 */
(PID.TID 0000.0001)                 4.770500000000000E+01,      /* K = 55 */
(PID.TID 0000.0001)                 4.829000000000000E+01,      /* K = 56 */
(PID.TID 0000.0001)                 4.875500000000000E+01,      /* K = 57 */
(PID.TID 0000.0001)                 4.912500000000000E+01,      /* K = 58 */
(PID.TID 0000.0001)                 4.941000000000000E+01,      /* K = 59 */
(PID.TID 0000.0001)                 4.962500000000000E+01,      /* K = 60 */
(PID.TID 0000.0001)                 4.981000000000000E+01,      /* K = 61 */
(PID.TID 0000.0001)                 5.000500000000000E+01,      /* K = 62 */
(PID.TID 0000.0001)                 5.026000000000000E+01,      /* K = 63 */
(PID.TID 0000.0001)                 5.066500000000000E+01,      /* K = 64 */
(PID.TID 0000.0001)                 5.130500000000000E+01,      /* K = 65 */
(PID.TID 0000.0001)                 5.228000000000000E+01,      /* K = 66 */
(PID.TID 0000.0001)                 5.370500000000000E+01,      /* K = 67 */
(PID.TID 0000.0001)                 5.566500000000000E+01,      /* K = 68 */
(PID.TID 0000.0001)                 5.823000000000000E+01,      /* K = 69 */
(PID.TID 0000.0001)                 6.141500000000000E+01,      /* K = 70 */
(PID.TID 0000.0001)                 6.521000000000001E+01,      /* K = 71 */
(PID.TID 0000.0001)                 6.954500000000000E+01,      /* K = 72 */
(PID.TID 0000.0001)                 7.433000000000000E+01,      /* K = 73 */
(PID.TID 0000.0001)                 7.947000000000000E+01,      /* K = 74 */
(PID.TID 0000.0001)                 8.486000000000000E+01,      /* K = 75 */
(PID.TID 0000.0001)                 9.041499999999999E+01,      /* K = 76 */
(PID.TID 0000.0001)                 9.606500000000000E+01,      /* K = 77 */
(PID.TID 0000.0001)                 1.017750000000000E+02,      /* K = 78 */
(PID.TID 0000.0001)                 1.075100000000000E+02,      /* K = 79 */
(PID.TID 0000.0001)                 1.132500000000000E+02,      /* K = 80 */
(PID.TID 0000.0001)                 1.189950000000000E+02,      /* K = 81 */
(PID.TID 0000.0001)                 1.247500000000000E+02,      /* K = 82 */
(PID.TID 0000.0001)                 1.305050000000000E+02,      /* K = 83 */
(PID.TID 0000.0001)                 1.362500000000000E+02,      /* K = 84 */
(PID.TID 0000.0001)                 1.419950000000000E+02,      /* K = 85 */
(PID.TID 0000.0001)                 1.477500000000000E+02,      /* K = 86 */
(PID.TID 0000.0001)                 1.535050000000000E+02,      /* K = 87 */
(PID.TID 0000.0001)                 1.592500000000000E+02,      /* K = 88 */
(PID.TID 0000.0001)                 1.649950000000000E+02,      /* K = 89 */
(PID.TID 0000.0001)                 1.707500000000000E+02,      /* K = 90 */
(PID.TID 0000.0001)                 1.765050000000000E+02,      /* K = 91 */
(PID.TID 0000.0001)                 1.822500000000000E+02,      /* K = 92 */
(PID.TID 0000.0001)                 1.879950000000000E+02,      /* K = 93 */
(PID.TID 0000.0001)                 1.937500000000000E+02,      /* K = 94 */
(PID.TID 0000.0001)                 1.995050000000000E+02,      /* K = 95 */
(PID.TID 0000.0001)                 2.052500000000000E+02,      /* K = 96 */
(PID.TID 0000.0001)                 2.109950000000000E+02,      /* K = 97 */
(PID.TID 0000.0001)                 2.167500000000000E+02,      /* K = 98 */
(PID.TID 0000.0001)                 2.225050000000000E+02,      /* K = 99 */
(PID.TID 0000.0001)                 2.282500000000000E+02,      /* K =100 */
(PID.TID 0000.0001)                 1.155600000000000E+02       /* K =101 */
(PID.TID 0000.0001)     ;
(PID.TID 0000.0001) drF =   /* W spacing ( units of r ) */
(PID.TID 0000.0001)    15 @  5.000000000000000E+00,             /* K =  1: 15 */
(PID.TID 0000.0001)     2 @  5.010000000000000E+00,             /* K = 16: 17 */
(PID.TID 0000.0001)                 5.020000000000000E+00,      /* K = 18 */
(PID.TID 0000.0001)                 5.040000000000000E+00,      /* K = 19 */
(PID.TID 0000.0001)                 5.070000000000000E+00,      /* K = 20 */
(PID.TID 0000.0001)                 5.120000000000000E+00,      /* K = 21 */
(PID.TID 0000.0001)                 5.200000000000000E+00,      /* K = 22 */
(PID.TID 0000.0001)                 5.310000000000000E+00,      /* K = 23 */
(PID.TID 0000.0001)                 5.490000000000000E+00,      /* K = 24 */
(PID.TID 0000.0001)                 5.720000000000000E+00,      /* K = 25 */
(PID.TID 0000.0001)                 6.040000000000000E+00,      /* K = 26 */
(PID.TID 0000.0001)                 6.450000000000000E+00,      /* K = 27 */
(PID.TID 0000.0001)                 6.970000000000000E+00,      /* K = 28 */
(PID.TID 0000.0001)                 7.620000000000000E+00,      /* K = 29 */
(PID.TID 0000.0001)                 8.420000000000000E+00,      /* K = 30 */
(PID.TID 0000.0001)                 9.359999999999999E+00,      /* K = 31 */
(PID.TID 0000.0001)                 1.046000000000000E+01,      /* K = 32 */
(PID.TID 0000.0001)                 1.172000000000000E+01,      /* K = 33 */
(PID.TID 0000.0001)                 1.313000000000000E+01,      /* K = 34 */
(PID.TID 0000.0001)                 1.470000000000000E+01,      /* K = 35 */
(PID.TID 0000.0001)                 1.640000000000000E+01,      /* K = 36 */
(PID.TID 0000.0001)                 1.824000000000000E+01,      /* K = 37 */
(PID.TID 0000.0001)                 2.018000000000000E+01,      /* K = 38 */
(PID.TID 0000.0001)                 2.221000000000000E+01,      /* K = 39 */
(PID.TID 0000.0001)                 2.429000000000000E+01,      /* K = 40 */
(PID.TID 0000.0001)                 2.643000000000000E+01,      /* K = 41 */
(PID.TID 0000.0001)                 2.857000000000000E+01,      /* K = 42 */
(PID.TID 0000.0001)                 3.071000000000000E+01,      /* K = 43 */
(PID.TID 0000.0001)                 3.279000000000000E+01,      /* K = 44 */
(PID.TID 0000.0001)                 3.482000000000000E+01,      /* K = 45 */
(PID.TID 0000.0001)                 3.676000000000000E+01,      /* K = 46 */
(PID.TID 0000.0001)                 3.860000000000000E+01,      /* K = 47 */
(PID.TID 0000.0001)                 4.030000000000000E+01,      /* K = 48 */
(PID.TID 0000.0001)                 4.187000000000000E+01,      /* K = 49 */
(PID.TID 0000.0001)                 4.328000000000000E+01,      /* K = 50 */
(PID.TID 0000.0001)                 4.454000000000000E+01,      /* K = 51 */
(PID.TID 0000.0001)                 4.564000000000000E+01,      /* K = 52 */
(PID.TID 0000.0001)                 4.658000000000000E+01,      /* K = 53 */
(PID.TID 0000.0001)                 4.738000000000000E+01,      /* K = 54 */
(PID.TID 0000.0001)                 4.803000000000000E+01,      /* K = 55 */
(PID.TID 0000.0001)                 4.855000000000000E+01,      /* K = 56 */
(PID.TID 0000.0001)                 4.896000000000000E+01,      /* K = 57 */
(PID.TID 0000.0001)                 4.929000000000000E+01,      /* K = 58 */
(PID.TID 0000.0001)                 4.953000000000000E+01,      /* K = 59 */
(PID.TID 0000.0001)                 4.972000000000000E+01,      /* K = 60 */
(PID.TID 0000.0001)                 4.990000000000000E+01,      /* K = 61 */
(PID.TID 0000.0001)                 5.011000000000000E+01,      /* K = 62 */
(PID.TID 0000.0001)                 5.041000000000000E+01,      /* K = 63 */
(PID.TID 0000.0001)                 5.092000000000000E+01,      /* K = 64 */
(PID.TID 0000.0001)                 5.169000000000000E+01,      /* K = 65 */
(PID.TID 0000.0001)                 5.287000000000000E+01,      /* K = 66 */
(PID.TID 0000.0001)                 5.454000000000000E+01,      /* K = 67 */
(PID.TID 0000.0001)                 5.679000000000000E+01,      /* K = 68 */
(PID.TID 0000.0001)                 5.967000000000000E+01,      /* K = 69 */
(PID.TID 0000.0001)                 6.316000000000000E+01,      /* K = 70 */
(PID.TID 0000.0001)                 6.726000000000001E+01,      /* K = 71 */
(PID.TID 0000.0001)                 7.183000000000000E+01,      /* K = 72 */
(PID.TID 0000.0001)                 7.683000000000000E+01,      /* K = 73 */
(PID.TID 0000.0001)                 8.211000000000000E+01,      /* K = 74 */
(PID.TID 0000.0001)                 8.761000000000000E+01,      /* K = 75 */
(PID.TID 0000.0001)                 9.322000000000000E+01,      /* K = 76 */
(PID.TID 0000.0001)                 9.891000000000000E+01,      /* K = 77 */
(PID.TID 0000.0001)                 1.046400000000000E+02,      /* K = 78 */
(PID.TID 0000.0001)                 1.103800000000000E+02,      /* K = 79 */
(PID.TID 0000.0001)                 1.161200000000000E+02,      /* K = 80 */
(PID.TID 0000.0001)                 1.218700000000000E+02,      /* K = 81 */
(PID.TID 0000.0001)                 1.276300000000000E+02,      /* K = 82 */
(PID.TID 0000.0001)                 1.333800000000000E+02,      /* K = 83 */
(PID.TID 0000.0001)                 1.391200000000000E+02,      /* K = 84 */
(PID.TID 0000.0001)                 1.448700000000000E+02,      /* K = 85 */
(PID.TID 0000.0001)                 1.506300000000000E+02,      /* K = 86 */
(PID.TID 0000.0001)                 1.563800000000000E+02,      /* K = 87 */
(PID.TID 0000.0001)                 1.621200000000000E+02,      /* K = 88 */
(PID.TID 0000.0001)                 1.678700000000000E+02,      /* K = 89 */
(PID.TID 0000.0001)                 1.736300000000000E+02,      /* K = 90 */
(PID.TID 0000.0001)                 1.793800000000000E+02,      /* K = 91 */
(PID.TID 0000.0001)                 1.851200000000000E+02,      /* K = 92 */
(PID.TID 0000.0001)                 1.908700000000000E+02,      /* K = 93 */
(PID.TID 0000.0001)                 1.966300000000000E+02,      /* K = 94 */
(PID.TID 0000.0001)                 2.023800000000000E+02,      /* K = 95 */
(PID.TID 0000.0001)                 2.081200000000000E+02,      /* K = 96 */
(PID.TID 0000.0001)                 2.138700000000000E+02,      /* K = 97 */
(PID.TID 0000.0001)                 2.196300000000000E+02,      /* K = 98 */
(PID.TID 0000.0001)                 2.253800000000000E+02,      /* K = 99 */
(PID.TID 0000.0001)                 2.311200000000000E+02       /* K =100 */
(PID.TID 0000.0001)     ;
(PID.TID 0000.0001) delX = /* U spacing ( m - cartesian, degrees - spherical ) */
(PID.TID 0000.0001)  2160 @  4.166666666666700E-02              /* I =   1:2160 */
(PID.TID 0000.0001)     ;
(PID.TID 0000.0001) delY = /* V spacing ( m - cartesian, degrees - spherical ) */
(PID.TID 0000.0001)                 3.423118591308594E-02,      /* J =  1 */
(PID.TID 0000.0001)                 3.422164916992188E-02,      /* J =  2 */
(PID.TID 0000.0001)                 3.421211242675781E-02,      /* J =  3 */
(PID.TID 0000.0001)      . . .
(PID.TID 0000.0001)                 3.283882141113281E-02,      /* J =133 */
(PID.TID 0000.0001)                 3.282928466796875E-02,      /* J =134 */
(PID.TID 0000.0001)                 3.281784057617188E-02,      /* J =135 */
(PID.TID 0000.0001)                 3.280639648437500E-02,      /* J =136 */
(PID.TID 0000.0001)                 3.279495239257812E-02,      /* J =137 */
(PID.TID 0000.0001)                 3.278350830078125E-02,      /* J =138 */
(PID.TID 0000.0001)      . . .
(PID.TID 0000.0001)                 3.132247924804688E-02,      /* J =268 */
(PID.TID 0000.0001)                 3.130722045898438E-02,      /* J =269 */
(PID.TID 0000.0001)                 3.129959106445312E-02,      /* J =270 */
(PID.TID 0000.0001)                 3.128814697265625E-02,      /* J =271 */
(PID.TID 0000.0001)                 3.127288818359375E-02,      /* J =272 */
(PID.TID 0000.0001)                 3.126525878906250E-02,      /* J =273 */
(PID.TID 0000.0001)      . . .
(PID.TID 0000.0001)                 2.974700927734375E-02,      /* J =403 */
(PID.TID 0000.0001)                 2.973175048828125E-02,      /* J =404 */
(PID.TID 0000.0001)                 2.971649169921875E-02,      /* J =405 */
(PID.TID 0000.0001)                 2.970886230468750E-02,      /* J =406 */
(PID.TID 0000.0001)                 2.969741821289062E-02,      /* J =407 */
(PID.TID 0000.0001)                 2.968597412109375E-02,      /* J =408 */
(PID.TID 0000.0001)      . . .
(PID.TID 0000.0001)                 2.813720703125000E-02,      /* J =538 */
(PID.TID 0000.0001)                 2.812576293945312E-02,      /* J =539 */
(PID.TID 0000.0001)                 2.811431884765625E-02       /* J =540 */
(PID.TID 0000.0001)     ;
(PID.TID 0000.0001) xgOrigin = /* X-axis origin of West  edge (cartesian: m, lat-lon: deg) */
(PID.TID 0000.0001)                -8.300000000000000E+01
(PID.TID 0000.0001)     ;
(PID.TID 0000.0001) ygOrigin = /* Y-axis origin of South edge (cartesian: m, lat-lon: deg) */
(PID.TID 0000.0001)                 2.665005493164062E+01
(PID.TID 0000.0001)     ;
(PID.TID 0000.0001) rSphere =  /* Radius ( ignored - cartesian, m - spherical ) */
(PID.TID 0000.0001)                 6.370000000000000E+06
(PID.TID 0000.0001)     ;
(PID.TID 0000.0001) deepAtmosphere = /* Deep/Shallow Atmosphere flag (True/False) */
(PID.TID 0000.0001)                   F
(PID.TID 0000.0001)     ;
(PID.TID 0000.0001) xC =  /* xC(:,1,:,1) : P-point X coord ( deg. or m if cartesian) */
(PID.TID 0000.0001)                -8.297916666666666E+01,      /* I =  1 */
(PID.TID 0000.0001)                -8.293750000000000E+01,      /* I =  2 */
(PID.TID 0000.0001)                -8.289583333333331E+01,      /* I =  3 */
(PID.TID 0000.0001)      . . .
(PID.TID 0000.0001)                -8.214583333333323E+01,      /* I = 21 */
(PID.TID 0000.0001)                -8.210416666666657E+01,      /* I = 22 */
(PID.TID 0000.0001)                -8.206249999999989E+01,      /* I = 23 */
(PID.TID 0000.0001)                -8.202083333333323E+01,      /* I = 24 */
(PID.TID 0000.0001)                -8.197916666666654E+01,      /* I = 25 */
(PID.TID 0000.0001)                -8.193749999999989E+01,      /* I = 26 */
(PID.TID 0000.0001)      . . .
(PID.TID 0000.0001)                -8.122916666666646E+01,      /* I = 43 */
(PID.TID 0000.0001)                -8.118749999999980E+01,      /* I = 44 */
(PID.TID 0000.0001)                -8.114583333333312E+01,      /* I = 45 */
(PID.TID 0000.0001)                -8.110416666666646E+01,      /* I = 46 */
(PID.TID 0000.0001)                -8.106249999999977E+01,      /* I = 47 */
(PID.TID 0000.0001)                -8.102083333333312E+01,      /* I = 48 */
(PID.TID 0000.0001)      . . .
(PID.TID 0000.0001)                -8.031249999999969E+01,      /* I = 65 */
(PID.TID 0000.0001)                -8.027083333333303E+01,      /* I = 66 */
(PID.TID 0000.0001)                -8.022916666666634E+01,      /* I = 67 */
(PID.TID 0000.0001)                -8.018749999999969E+01,      /* I = 68 */
(PID.TID 0000.0001)                -8.014583333333300E+01,      /* I = 69 */
(PID.TID 0000.0001)                -8.010416666666634E+01,      /* I = 70 */
(PID.TID 0000.0001)      . . .
(PID.TID 0000.0001)                -7.935416666666626E+01,      /* I = 88 */
(PID.TID 0000.0001)                -7.931249999999957E+01,      /* I = 89 */
(PID.TID 0000.0001)                -7.927083333333292E+01       /* I = 90 */
(PID.TID 0000.0001)     ;
(PID.TID 0000.0001) yC =  /* yC(1,:,1,:) : P-point Y coord ( deg. or m if cartesian) */
(PID.TID 0000.0001)                 2.666717052459717E+01,      /* J =  1 */
(PID.TID 0000.0001)                 2.670139694213867E+01,      /* J =  2 */
(PID.TID 0000.0001)                 2.673561382293701E+01,      /* J =  3 */
(PID.TID 0000.0001)      . . .
(PID.TID 0000.0001)                 2.734977054595947E+01,      /* J = 21 */
(PID.TID 0000.0001)                 2.738379383087158E+01,      /* J = 22 */
(PID.TID 0000.0001)                 2.741780662536621E+01,      /* J = 23 */
(PID.TID 0000.0001)                 2.745180892944336E+01,      /* J = 24 */
(PID.TID 0000.0001)                 2.748580074310303E+01,      /* J = 25 */
(PID.TID 0000.0001)                 2.751978206634521E+01,      /* J = 26 */
(PID.TID 0000.0001)      . . .
(PID.TID 0000.0001)                 2.809589099884033E+01,      /* J = 43 */
(PID.TID 0000.0001)                 2.812968635559082E+01,      /* J = 44 */
(PID.TID 0000.0001)                 2.816347122192383E+01,      /* J = 45 */
(PID.TID 0000.0001)                 2.819724559783936E+01,      /* J = 46 */
(PID.TID 0000.0001)                 2.823101043701172E+01,      /* J = 47 */
(PID.TID 0000.0001)                 2.826476478576660E+01,      /* J = 48 */
(PID.TID 0000.0001)      . . .
(PID.TID 0000.0001)                 2.883697605133057E+01,      /* J = 65 */
(PID.TID 0000.0001)                 2.887054157257080E+01,      /* J = 66 */
(PID.TID 0000.0001)                 2.890409564971924E+01,      /* J = 67 */
(PID.TID 0000.0001)                 2.893763923645020E+01,      /* J = 68 */
(PID.TID 0000.0001)                 2.897117233276367E+01,      /* J = 69 */
(PID.TID 0000.0001)                 2.900469493865967E+01,      /* J = 70 */
(PID.TID 0000.0001)      . . .
(PID.TID 0000.0001)                 2.960628890991211E+01,      /* J = 88 */
(PID.TID 0000.0001)                 2.963960933685303E+01,      /* J = 89 */
(PID.TID 0000.0001)                 2.967291927337646E+01       /* J = 90 */
(PID.TID 0000.0001)     ;
(PID.TID 0000.0001) rcoord = /* P-point R coordinate (  units of r ) */
(PID.TID 0000.0001)                -2.500000000000000E+00,      /* K =  1 */
(PID.TID 0000.0001)                -7.500000000000000E+00,      /* K =  2 */
(PID.TID 0000.0001)                -1.250000000000000E+01,      /* K =  3 */
(PID.TID 0000.0001)                -1.750000000000000E+01,      /* K =  4 */
(PID.TID 0000.0001)                -2.250000000000000E+01,      /* K =  5 */
(PID.TID 0000.0001)                -2.750000000000000E+01,      /* K =  6 */
(PID.TID 0000.0001)                -3.250000000000000E+01,      /* K =  7 */
(PID.TID 0000.0001)                -3.750000000000000E+01,      /* K =  8 */
(PID.TID 0000.0001)                -4.250000000000000E+01,      /* K =  9 */
(PID.TID 0000.0001)                -4.750000000000000E+01,      /* K = 10 */
(PID.TID 0000.0001)                -5.250000000000000E+01,      /* K = 11 */
(PID.TID 0000.0001)                -5.750000000000000E+01,      /* K = 12 */
(PID.TID 0000.0001)                -6.250000000000000E+01,      /* K = 13 */
(PID.TID 0000.0001)                -6.750000000000000E+01,      /* K = 14 */
(PID.TID 0000.0001)                -7.250000000000000E+01,      /* K = 15 */
(PID.TID 0000.0001)                -7.750500000000000E+01,      /* K = 16 */
(PID.TID 0000.0001)                -8.251500000000000E+01,      /* K = 17 */
(PID.TID 0000.0001)                -8.753000000000000E+01,      /* K = 18 */
(PID.TID 0000.0001)                -9.256000000000000E+01,      /* K = 19 */
(PID.TID 0000.0001)                -9.761500000000001E+01,      /* K = 20 */
(PID.TID 0000.0001)                -1.027100000000000E+02,      /* K = 21 */
(PID.TID 0000.0001)                -1.078700000000000E+02,      /* K = 22 */
(PID.TID 0000.0001)                -1.131250000000000E+02,      /* K = 23 */
(PID.TID 0000.0001)                -1.185250000000000E+02,      /* K = 24 */
(PID.TID 0000.0001)                -1.241300000000000E+02,      /* K = 25 */
(PID.TID 0000.0001)                -1.300100000000000E+02,      /* K = 26 */
(PID.TID 0000.0001)                -1.362550000000000E+02,      /* K = 27 */
(PID.TID 0000.0001)                -1.429650000000000E+02,      /* K = 28 */
(PID.TID 0000.0001)                -1.502600000000000E+02,      /* K = 29 */
(PID.TID 0000.0001)                -1.582800000000000E+02,      /* K = 30 */
(PID.TID 0000.0001)                -1.671700000000000E+02,      /* K = 31 */
(PID.TID 0000.0001)                -1.770800000000000E+02,      /* K = 32 */
(PID.TID 0000.0001)                -1.881700000000000E+02,      /* K = 33 */
(PID.TID 0000.0001)                -2.005950000000000E+02,      /* K = 34 */
(PID.TID 0000.0001)                -2.145100000000000E+02,      /* K = 35 */
(PID.TID 0000.0001)                -2.300600000000000E+02,      /* K = 36 */
(PID.TID 0000.0001)                -2.473800000000000E+02,      /* K = 37 */
(PID.TID 0000.0001)                -2.665900000000000E+02,      /* K = 38 */
(PID.TID 0000.0001)                -2.877850000000000E+02,      /* K = 39 */
(PID.TID 0000.0001)                -3.110350000000000E+02,      /* K = 40 */
(PID.TID 0000.0001)                -3.363950000000000E+02,      /* K = 41 */
(PID.TID 0000.0001)                -3.638950000000000E+02,      /* K = 42 */
(PID.TID 0000.0001)                -3.935350000000000E+02,      /* K = 43 */
(PID.TID 0000.0001)                -4.252850000000000E+02,      /* K = 44 */
(PID.TID 0000.0001)                -4.590900000000000E+02,      /* K = 45 */
(PID.TID 0000.0001)                -4.948800000000001E+02,      /* K = 46 */
(PID.TID 0000.0001)                -5.325600000000001E+02,      /* K = 47 */
(PID.TID 0000.0001)                -5.720100000000001E+02,      /* K = 48 */
(PID.TID 0000.0001)                -6.130950000000001E+02,      /* K = 49 */
(PID.TID 0000.0001)                -6.556700000000002E+02,      /* K = 50 */
(PID.TID 0000.0001)                -6.995800000000002E+02,      /* K = 51 */
(PID.TID 0000.0001)                -7.446700000000002E+02,      /* K = 52 */
(PID.TID 0000.0001)                -7.907800000000002E+02,      /* K = 53 */
(PID.TID 0000.0001)                -8.377600000000002E+02,      /* K = 54 */
(PID.TID 0000.0001)                -8.854650000000003E+02,      /* K = 55 */
(PID.TID 0000.0001)                -9.337550000000002E+02,      /* K = 56 */
(PID.TID 0000.0001)                -9.825100000000002E+02,      /* K = 57 */
(PID.TID 0000.0001)                -1.031635000000000E+03,      /* K = 58 */
(PID.TID 0000.0001)                -1.081045000000000E+03,      /* K = 59 */
(PID.TID 0000.0001)                -1.130670000000000E+03,      /* K = 60 */
(PID.TID 0000.0001)                -1.180480000000000E+03,      /* K = 61 */
(PID.TID 0000.0001)                -1.230485000000000E+03,      /* K = 62 */
(PID.TID 0000.0001)                -1.280745000000000E+03,      /* K = 63 */
(PID.TID 0000.0001)                -1.331410000000000E+03,      /* K = 64 */
(PID.TID 0000.0001)                -1.382715000000000E+03,      /* K = 65 */
(PID.TID 0000.0001)                -1.434995000000000E+03,      /* K = 66 */
(PID.TID 0000.0001)                -1.488700000000000E+03,      /* K = 67 */
(PID.TID 0000.0001)                -1.544365000000000E+03,      /* K = 68 */
(PID.TID 0000.0001)                -1.602595000000000E+03,      /* K = 69 */
(PID.TID 0000.0001)                -1.664010000000000E+03,      /* K = 70 */
(PID.TID 0000.0001)                -1.729220000000000E+03,      /* K = 71 */
(PID.TID 0000.0001)                -1.798765000000000E+03,      /* K = 72 */
(PID.TID 0000.0001)                -1.873095000000000E+03,      /* K = 73 */
(PID.TID 0000.0001)                -1.952565000000000E+03,      /* K = 74 */
(PID.TID 0000.0001)                -2.037425000000000E+03,      /* K = 75 */
(PID.TID 0000.0001)                -2.127840000000000E+03,      /* K = 76 */
(PID.TID 0000.0001)                -2.223905000000000E+03,      /* K = 77 */
(PID.TID 0000.0001)                -2.325680000000000E+03,      /* K = 78 */
(PID.TID 0000.0001)                -2.433190000000001E+03,      /* K = 79 */
(PID.TID 0000.0001)                -2.546440000000001E+03,      /* K = 80 */
(PID.TID 0000.0001)                -2.665435000000000E+03,      /* K = 81 */
(PID.TID 0000.0001)                -2.790185000000000E+03,      /* K = 82 */
(PID.TID 0000.0001)                -2.920690000000001E+03,      /* K = 83 */
(PID.TID 0000.0001)                -3.056940000000001E+03,      /* K = 84 */
(PID.TID 0000.0001)                -3.198935000000000E+03,      /* K = 85 */
(PID.TID 0000.0001)                -3.346685000000000E+03,      /* K = 86 */
(PID.TID 0000.0001)                -3.500190000000001E+03,      /* K = 87 */
(PID.TID 0000.0001)                -3.659440000000001E+03,      /* K = 88 */
(PID.TID 0000.0001)                -3.824435000000000E+03,      /* K = 89 */
(PID.TID 0000.0001)                -3.995185000000000E+03,      /* K = 90 */
(PID.TID 0000.0001)                -4.171690000000001E+03,      /* K = 91 */
(PID.TID 0000.0001)                -4.353940000000001E+03,      /* K = 92 */
(PID.TID 0000.0001)                -4.541935000000000E+03,      /* K = 93 */
(PID.TID 0000.0001)                -4.735685000000000E+03,      /* K = 94 */
(PID.TID 0000.0001)                -4.935190000000001E+03,      /* K = 95 */
(PID.TID 0000.0001)                -5.140440000000001E+03,      /* K = 96 */
(PID.TID 0000.0001)                -5.351435000000000E+03,      /* K = 97 */
(PID.TID 0000.0001)                -5.568185000000000E+03,      /* K = 98 */
(PID.TID 0000.0001)                -5.790690000000001E+03,      /* K = 99 */
(PID.TID 0000.0001)                -6.018940000000001E+03       /* K =100 */
(PID.TID 0000.0001)     ;
(PID.TID 0000.0001) rF =   /* W-Interf. R coordinate (  units of r ) */
(PID.TID 0000.0001)                 0.000000000000000E+00,      /* K =  1 */
(PID.TID 0000.0001)                -5.000000000000000E+00,      /* K =  2 */
(PID.TID 0000.0001)                -1.000000000000000E+01,      /* K =  3 */
(PID.TID 0000.0001)                -1.500000000000000E+01,      /* K =  4 */
(PID.TID 0000.0001)                -2.000000000000000E+01,      /* K =  5 */
(PID.TID 0000.0001)                -2.500000000000000E+01,      /* K =  6 */
(PID.TID 0000.0001)                -3.000000000000000E+01,      /* K =  7 */
(PID.TID 0000.0001)                -3.500000000000000E+01,      /* K =  8 */
(PID.TID 0000.0001)                -4.000000000000000E+01,      /* K =  9 */
(PID.TID 0000.0001)                -4.500000000000000E+01,      /* K = 10 */
(PID.TID 0000.0001)                -5.000000000000000E+01,      /* K = 11 */
(PID.TID 0000.0001)                -5.500000000000000E+01,      /* K = 12 */
(PID.TID 0000.0001)                -6.000000000000000E+01,      /* K = 13 */
(PID.TID 0000.0001)                -6.500000000000000E+01,      /* K = 14 */
(PID.TID 0000.0001)                -7.000000000000000E+01,      /* K = 15 */
(PID.TID 0000.0001)                -7.500000000000000E+01,      /* K = 16 */
(PID.TID 0000.0001)                -8.001000000000001E+01,      /* K = 17 */
(PID.TID 0000.0001)                -8.502000000000001E+01,      /* K = 18 */
(PID.TID 0000.0001)                -9.004000000000001E+01,      /* K = 19 */
(PID.TID 0000.0001)                -9.508000000000001E+01,      /* K = 20 */
(PID.TID 0000.0001)                -1.001500000000000E+02,      /* K = 21 */
(PID.TID 0000.0001)                -1.052700000000000E+02,      /* K = 22 */
(PID.TID 0000.0001)                -1.104700000000000E+02,      /* K = 23 */
(PID.TID 0000.0001)                -1.157800000000000E+02,      /* K = 24 */
(PID.TID 0000.0001)                -1.212700000000000E+02,      /* K = 25 */
(PID.TID 0000.0001)                -1.269900000000000E+02,      /* K = 26 */
(PID.TID 0000.0001)                -1.330300000000000E+02,      /* K = 27 */
(PID.TID 0000.0001)                -1.394800000000000E+02,      /* K = 28 */
(PID.TID 0000.0001)                -1.464500000000000E+02,      /* K = 29 */
(PID.TID 0000.0001)                -1.540700000000000E+02,      /* K = 30 */
(PID.TID 0000.0001)                -1.624900000000000E+02,      /* K = 31 */
(PID.TID 0000.0001)                -1.718500000000000E+02,      /* K = 32 */
(PID.TID 0000.0001)                -1.823100000000000E+02,      /* K = 33 */
(PID.TID 0000.0001)                -1.940300000000000E+02,      /* K = 34 */
(PID.TID 0000.0001)                -2.071600000000000E+02,      /* K = 35 */
(PID.TID 0000.0001)                -2.218600000000000E+02,      /* K = 36 */
(PID.TID 0000.0001)                -2.382600000000000E+02,      /* K = 37 */
(PID.TID 0000.0001)                -2.564999999999999E+02,      /* K = 38 */
(PID.TID 0000.0001)                -2.766799999999999E+02,      /* K = 39 */
(PID.TID 0000.0001)                -2.988899999999999E+02,      /* K = 40 */
(PID.TID 0000.0001)                -3.231799999999999E+02,      /* K = 41 */
(PID.TID 0000.0001)                -3.496100000000000E+02,      /* K = 42 */
(PID.TID 0000.0001)                -3.781799999999999E+02,      /* K = 43 */
(PID.TID 0000.0001)                -4.088899999999999E+02,      /* K = 44 */
(PID.TID 0000.0001)                -4.416799999999999E+02,      /* K = 45 */
(PID.TID 0000.0001)                -4.764999999999999E+02,      /* K = 46 */
(PID.TID 0000.0001)                -5.132600000000000E+02,      /* K = 47 */
(PID.TID 0000.0001)                -5.518600000000000E+02,      /* K = 48 */
(PID.TID 0000.0001)                -5.921600000000000E+02,      /* K = 49 */
(PID.TID 0000.0001)                -6.340300000000000E+02,      /* K = 50 */
(PID.TID 0000.0001)                -6.773099999999999E+02,      /* K = 51 */
(PID.TID 0000.0001)                -7.218499999999999E+02,      /* K = 52 */
(PID.TID 0000.0001)                -7.674899999999999E+02,      /* K = 53 */
(PID.TID 0000.0001)                -8.140699999999999E+02,      /* K = 54 */
(PID.TID 0000.0001)                -8.614499999999999E+02,      /* K = 55 */
(PID.TID 0000.0001)                -9.094799999999999E+02,      /* K = 56 */
(PID.TID 0000.0001)                -9.580299999999999E+02,      /* K = 57 */
(PID.TID 0000.0001)                -1.006990000000000E+03,      /* K = 58 */
(PID.TID 0000.0001)                -1.056280000000000E+03,      /* K = 59 */
(PID.TID 0000.0001)                -1.105810000000000E+03,      /* K = 60 */
(PID.TID 0000.0001)                -1.155530000000000E+03,      /* K = 61 */
(PID.TID 0000.0001)                -1.205430000000000E+03,      /* K = 62 */
(PID.TID 0000.0001)                -1.255540000000000E+03,      /* K = 63 */
(PID.TID 0000.0001)                -1.305950000000000E+03,      /* K = 64 */
(PID.TID 0000.0001)                -1.356870000000000E+03,      /* K = 65 */
(PID.TID 0000.0001)                -1.408560000000000E+03,      /* K = 66 */
(PID.TID 0000.0001)                -1.461430000000000E+03,      /* K = 67 */
(PID.TID 0000.0001)                -1.515970000000000E+03,      /* K = 68 */
(PID.TID 0000.0001)                -1.572760000000000E+03,      /* K = 69 */
(PID.TID 0000.0001)                -1.632430000000000E+03,      /* K = 70 */
(PID.TID 0000.0001)                -1.695590000000000E+03,      /* K = 71 */
(PID.TID 0000.0001)                -1.762850000000000E+03,      /* K = 72 */
(PID.TID 0000.0001)                -1.834680000000000E+03,      /* K = 73 */
(PID.TID 0000.0001)                -1.911510000000000E+03,      /* K = 74 */
(PID.TID 0000.0001)                -1.993620000000000E+03,      /* K = 75 */
(PID.TID 0000.0001)                -2.081230000000000E+03,      /* K = 76 */
(PID.TID 0000.0001)                -2.174450000000000E+03,      /* K = 77 */
(PID.TID 0000.0001)                -2.273360000000000E+03,      /* K = 78 */
(PID.TID 0000.0001)                -2.378000000000000E+03,      /* K = 79 */
(PID.TID 0000.0001)                -2.488380000000000E+03,      /* K = 80 */
(PID.TID 0000.0001)                -2.604500000000000E+03,      /* K = 81 */
(PID.TID 0000.0001)                -2.726369999999999E+03,      /* K = 82 */
(PID.TID 0000.0001)                -2.854000000000000E+03,      /* K = 83 */
(PID.TID 0000.0001)                -2.987380000000000E+03,      /* K = 84 */
(PID.TID 0000.0001)                -3.126500000000000E+03,      /* K = 85 */
(PID.TID 0000.0001)                -3.271369999999999E+03,      /* K = 86 */
(PID.TID 0000.0001)                -3.422000000000000E+03,      /* K = 87 */
(PID.TID 0000.0001)                -3.578380000000000E+03,      /* K = 88 */
(PID.TID 0000.0001)                -3.740500000000000E+03,      /* K = 89 */
(PID.TID 0000.0001)                -3.908369999999999E+03,      /* K = 90 */
(PID.TID 0000.0001)                -4.082000000000000E+03,      /* K = 91 */
(PID.TID 0000.0001)                -4.261379999999999E+03,      /* K = 92 */
(PID.TID 0000.0001)                -4.446499999999999E+03,      /* K = 93 */
(PID.TID 0000.0001)                -4.637369999999999E+03,      /* K = 94 */
(PID.TID 0000.0001)                -4.833999999999999E+03,      /* K = 95 */
(PID.TID 0000.0001)                -5.036379999999999E+03,      /* K = 96 */
(PID.TID 0000.0001)                -5.244499999999999E+03,      /* K = 97 */
(PID.TID 0000.0001)                -5.458369999999999E+03,      /* K = 98 */
(PID.TID 0000.0001)                -5.677999999999999E+03,      /* K = 99 */
(PID.TID 0000.0001)                -5.903379999999999E+03,      /* K =100 */
(PID.TID 0000.0001)                -6.134499999999999E+03       /* K =101 */
(PID.TID 0000.0001)     ;
(PID.TID 0000.0001) deepFacC = /* deep-model grid factor @ cell-Center (-) */
(PID.TID 0000.0001)   100 @  1.000000000000000E+00              /* K =  1:100 */
(PID.TID 0000.0001)     ;
(PID.TID 0000.0001) deepFacF = /* deep-model grid factor @ W-Interface (-) */
(PID.TID 0000.0001)   101 @  1.000000000000000E+00              /* K =  1:101 */
(PID.TID 0000.0001)     ;
(PID.TID 0000.0001) rVel2wUnit = /* convert units: rVel -> wSpeed (=1 if z-coord)*/
(PID.TID 0000.0001)   101 @  1.000000000000000E+00              /* K =  1:101 */
(PID.TID 0000.0001)     ;
(PID.TID 0000.0001) wUnit2rVel = /* convert units: wSpeed -> rVel (=1 if z-coord)*/
(PID.TID 0000.0001)   101 @  1.000000000000000E+00              /* K =  1:101 */
(PID.TID 0000.0001)     ;
(PID.TID 0000.0001) dBdrRef = /* Vertical grad. of reference buoyancy [(m/s/r)^2] */
(PID.TID 0000.0001)     5 @  0.000000000000000E+00,             /* K =  1:  5 */
(PID.TID 0000.0001)                 9.694282843778342E-06,      /* K =  6 */
(PID.TID 0000.0001)                 2.426513223807763E-05,      /* K =  7 */
(PID.TID 0000.0001)                 1.452975530153167E-05,      /* K =  8 */
(PID.TID 0000.0001)                 9.681498625854328E-06,      /* K =  9 */
(PID.TID 0000.0001)                 4.842099844624020E-05,      /* K = 10 */
(PID.TID 0000.0001)                 6.280856330023614E-05,      /* K = 11 */
(PID.TID 0000.0001)                 8.185617076656702E-05,      /* K = 12 */
(PID.TID 0000.0001)                 1.295252644691406E-04,      /* K = 13 */
(PID.TID 0000.0001)                 1.095351351384002E-04,      /* K = 14 */
(PID.TID 0000.0001)                 1.329169312007239E-04,      /* K = 15 */
(PID.TID 0000.0001)                 1.367041979360881E-04,      /* K = 16 */
(PID.TID 0000.0001)                 1.211727126593573E-04,      /* K = 17 */
(PID.TID 0000.0001)                 1.302265701121417E-04,      /* K = 18 */
(PID.TID 0000.0001)                 1.190854314588815E-04,      /* K = 19 */
(PID.TID 0000.0001)                 1.132023267377615E-04,      /* K = 20 */
(PID.TID 0000.0001)                 1.071632265654582E-04,      /* K = 21 */
(PID.TID 0000.0001)                 1.051393672457803E-04,      /* K = 22 */
(PID.TID 0000.0001)                 1.025752720636568E-04,      /* K = 23 */
(PID.TID 0000.0001)                 9.917395824143918E-05,      /* K = 24 */
(PID.TID 0000.0001)                 9.104030067387556E-05,      /* K = 25 */
(PID.TID 0000.0001)                 8.624441260795840E-05,      /* K = 26 */
(PID.TID 0000.0001)                 8.413036901537412E-05,      /* K = 27 */
(PID.TID 0000.0001)                 6.366728012651445E-05,      /* K = 28 */
(PID.TID 0000.0001)                 5.812092618380799E-05,      /* K = 29 */
(PID.TID 0000.0001)                 5.507951137016039E-05,      /* K = 30 */
(PID.TID 0000.0001)                 4.695510592930360E-05,      /* K = 31 */
(PID.TID 0000.0001)                 4.596409715692217E-05,      /* K = 32 */
(PID.TID 0000.0001)                 4.072795425761271E-05,      /* K = 33 */
(PID.TID 0000.0001)                 3.175298295526856E-05,      /* K = 34 */
(PID.TID 0000.0001)                 3.093452381022950E-05,      /* K = 35 */
(PID.TID 0000.0001)                 2.864003459600112E-05,      /* K = 36 */
(PID.TID 0000.0001)                 2.767315329576147E-05,      /* K = 37 */
(PID.TID 0000.0001)                 2.463000191580109E-05,      /* K = 38 */
(PID.TID 0000.0001)                 2.475053767167416E-05,      /* K = 39 */
(PID.TID 0000.0001)                 1.906506350221241E-05,      /* K = 40 */
(PID.TID 0000.0001)                 1.865582618722828E-05,      /* K = 41 */
(PID.TID 0000.0001)                 1.823366094760355E-05,      /* K = 42 */
(PID.TID 0000.0001)                 1.471037885515795E-05,      /* K = 43 */
(PID.TID 0000.0001)                 1.630603945735049E-05,      /* K = 44 */
(PID.TID 0000.0001)                 1.384745352787863E-05,      /* K = 45 */
(PID.TID 0000.0001)                 1.226594411185851E-05,      /* K = 46 */
(PID.TID 0000.0001)                 1.225310460290910E-05,      /* K = 47 */
(PID.TID 0000.0001)                 1.223011113144029E-05,      /* K = 48 */
(PID.TID 0000.0001)                 1.061638239990844E-05,      /* K = 49 */
(PID.TID 0000.0001)                 1.070650633014499E-05,      /* K = 50 */
(PID.TID 0000.0001)                 9.357472423340062E-06,      /* K = 51 */
(PID.TID 0000.0001)                 9.812756875994976E-06,      /* K = 52 */
(PID.TID 0000.0001)                 9.364680965538371E-06,      /* K = 53 */
(PID.TID 0000.0001)                 6.430982300518885E-06,      /* K = 54 */
(PID.TID 0000.0001)                 8.970058816087760E-06,      /* K = 55 */
(PID.TID 0000.0001)                 8.398462027768182E-06,      /* K = 56 */
(PID.TID 0000.0001)                 7.294531901104187E-06,      /* K = 57 */
(PID.TID 0000.0001)                 8.642565592484861E-06,      /* K = 58 */
(PID.TID 0000.0001)                 6.405731826441176E-06,      /* K = 59 */
(PID.TID 0000.0001)                 8.743452988220992E-06,      /* K = 60 */
(PID.TID 0000.0001)                 6.590306221026928E-06,      /* K = 61 */
(PID.TID 0000.0001)                 7.462277694900194E-06,      /* K = 62 */
(PID.TID 0000.0001)                 5.625478499738029E-06,      /* K = 63 */
(PID.TID 0000.0001)                 6.494457456351866E-06,      /* K = 64 */
(PID.TID 0000.0001)                 5.872364624284492E-06,      /* K = 65 */
(PID.TID 0000.0001)                 5.495436518643386E-06,      /* K = 66 */
(PID.TID 0000.0001)                 5.094601592541214E-06,      /* K = 67 */
(PID.TID 0000.0001)                 4.437172619322077E-06,      /* K = 68 */
(PID.TID 0000.0001)                 4.016940542409763E-06,      /* K = 69 */
(PID.TID 0000.0001)                 4.028908121728164E-06,      /* K = 70 */
(PID.TID 0000.0001)                 2.246388502686123E-06,      /* K = 71 */
(PID.TID 0000.0001)                 2.998142894531076E-06,      /* K = 72 */
(PID.TID 0000.0001)                 2.815413573924730E-06,      /* K = 73 */
(PID.TID 0000.0001)                 2.814329879263964E-06,      /* K = 74 */
(PID.TID 0000.0001)                 2.327158902006369E-06,      /* K = 75 */
(PID.TID 0000.0001)                 1.523559191918705E-06,      /* K = 76 */
(PID.TID 0000.0001)                 2.223754279938488E-06,      /* K = 77 */
(PID.TID 0000.0001)                 1.243572598777220E-06,      /* K = 78 */
(PID.TID 0000.0001)                 1.884009398486976E-06,      /* K = 79 */
(PID.TID 0000.0001)                 1.146309977456730E-06,      /* K = 80 */
(PID.TID 0000.0001)                 9.836409573498765E-07,      /* K = 81 */
(PID.TID 0000.0001)                 1.666564082034753E-06,      /* K = 82 */
(PID.TID 0000.0001)                 8.096789666921265E-07,      /* K = 83 */
(PID.TID 0000.0001)                 9.015806361848934E-07,      /* K = 84 */
(PID.TID 0000.0001)                 9.899996711216439E-07,      /* K = 85 */
(PID.TID 0000.0001)                 1.360959195968683E-06,      /* K = 86 */
(PID.TID 0000.0001)                 3.633635105266278E-07,      /* K = 87 */
(PID.TID 0000.0001)                 7.257552276248978E-07,      /* K = 88 */
(PID.TID 0000.0001)                 8.165089567519712E-07,      /* K = 89 */
(PID.TID 0000.0001)                 7.043987264958734E-07,      /* K = 90 */
(PID.TID 0000.0001)                 6.956983617110328E-07,      /* K = 91 */
(PID.TID 0000.0001)                 6.880703959048398E-07,      /* K = 92 */
(PID.TID 0000.0001)                 6.813676413074075E-07,      /* K = 93 */
(PID.TID 0000.0001)                 6.754628223828996E-07,      /* K = 94 */
(PID.TID 0000.0001)                 3.049729588883796E-07,      /* K = 95 */
(PID.TID 0000.0001)                 6.657955553385863E-07,      /* K = 96 */
(PID.TID 0000.0001)                 5.675084375793845E-07,      /* K = 97 */
(PID.TID 0000.0001)                 3.767262833194376E-07,      /* K = 98 */
(PID.TID 0000.0001)                 2.816808424830599E-07,      /* K = 99 */
(PID.TID 0000.0001)                 1.873891169846885E-07       /* K =100 */
(PID.TID 0000.0001)     ;
(PID.TID 0000.0001) rotateGrid = /* use rotated grid ( True/False ) */
(PID.TID 0000.0001)                   F
(PID.TID 0000.0001)     ;
(PID.TID 0000.0001) phiEuler = /* Euler angle, rotation about original z-coordinate [rad] */
(PID.TID 0000.0001)                 0.000000000000000E+00
(PID.TID 0000.0001)     ;
(PID.TID 0000.0001) thetaEuler = /* Euler angle, rotation about new x-coordinate [rad] */
(PID.TID 0000.0001)                 0.000000000000000E+00
(PID.TID 0000.0001)     ;
(PID.TID 0000.0001) psiEuler = /* Euler angle, rotation about new z-coordinate [rad] */
(PID.TID 0000.0001)                 0.000000000000000E+00
(PID.TID 0000.0001)     ;
(PID.TID 0000.0001) dxF =  /* dxF(:,1,:,1) ( units: m ) */
(PID.TID 0000.0001)    90 @  4.139640844360528E+03              /* I =  1: 90 */
(PID.TID 0000.0001)     ;
(PID.TID 0000.0001) dxF =  /* dxF(1,:,1,:) ( units: m ) */
(PID.TID 0000.0001)                 4.139640844360528E+03,      /* J =  1 */
(PID.TID 0000.0001)                 4.138398156068276E+03,      /* J =  2 */
(PID.TID 0000.0001)                 4.137154337892096E+03,      /* J =  3 */
(PID.TID 0000.0001)      . . .
(PID.TID 0000.0001)                 4.114578631903650E+03,      /* J = 21 */
(PID.TID 0000.0001)                 4.113314130015837E+03,      /* J = 22 */
(PID.TID 0000.0001)                 4.112048568245555E+03,      /* J = 23 */
(PID.TID 0000.0001)                 4.110781948379812E+03,      /* J = 24 */
(PID.TID 0000.0001)                 4.109514272204890E+03,      /* J = 25 */
(PID.TID 0000.0001)                 4.108245541506343E+03,      /* J = 26 */
(PID.TID 0000.0001)      . . .
(PID.TID 0000.0001)                 4.086516305844601E+03,      /* J = 43 */
(PID.TID 0000.0001)                 4.085228787830029E+03,      /* J = 44 */
(PID.TID 0000.0001)                 4.083940248837513E+03,      /* J = 45 */
(PID.TID 0000.0001)                 4.082650690638008E+03,      /* J = 46 */
(PID.TID 0000.0001)                 4.081360078528878E+03,      /* J = 47 */
(PID.TID 0000.0001)                 4.080068450672382E+03,      /* J = 48 */
(PID.TID 0000.0001)      . . .
(PID.TID 0000.0001)                 4.057957376278871E+03,      /* J = 65 */
(PID.TID 0000.0001)                 4.056647767010304E+03,      /* J = 66 */
(PID.TID 0000.0001)                 4.055337212739030E+03,      /* J = 67 */
(PID.TID 0000.0001)                 4.054025678029965E+03,      /* J = 68 */
(PID.TID 0000.0001)                 4.052713164636506E+03,      /* J = 69 */
(PID.TID 0000.0001)                 4.051399674311273E+03,      /* J = 70 */
(PID.TID 0000.0001)      . . .
(PID.TID 0000.0001)                 4.027592548301442E+03,      /* J = 88 */
(PID.TID 0000.0001)                 4.026260943407077E+03,      /* J = 89 */
(PID.TID 0000.0001)                 4.024928396702262E+03       /* J = 90 */
(PID.TID 0000.0001)     ;
(PID.TID 0000.0001) dyF =  /* dyF(:,1,:,1) ( units: m ) */
(PID.TID 0000.0001)    90 @  3.805736759660797E+03              /* I =  1: 90 */
(PID.TID 0000.0001)     ;
(PID.TID 0000.0001) dyF =  /* dyF(1,:,1,:) ( units: m ) */
(PID.TID 0000.0001)                 3.805736759660797E+03,      /* J =  1 */
(PID.TID 0000.0001)                 3.804676488651810E+03,      /* J =  2 */
(PID.TID 0000.0001)                 3.803616217642822E+03,      /* J =  3 */
(PID.TID 0000.0001)      . . .
(PID.TID 0000.0001)                 3.783259014270256E+03,      /* J = 21 */
(PID.TID 0000.0001)                 3.781986689059471E+03,      /* J = 22 */
(PID.TID 0000.0001)                 3.780926418050483E+03,      /* J = 23 */
(PID.TID 0000.0001)                 3.779654092839698E+03,      /* J = 24 */
(PID.TID 0000.0001)                 3.778593821830710E+03,      /* J = 25 */
(PID.TID 0000.0001)                 3.777321496619924E+03,      /* J = 26 */
(PID.TID 0000.0001)      . . .
(PID.TID 0000.0001)                 3.757812510054549E+03,      /* J = 43 */
(PID.TID 0000.0001)                 3.756752239045562E+03,      /* J = 44 */
(PID.TID 0000.0001)                 3.755479913834776E+03,      /* J = 45 */
(PID.TID 0000.0001)                 3.754419642825788E+03,      /* J = 46 */
(PID.TID 0000.0001)                 3.753359371816800E+03,      /* J = 47 */
(PID.TID 0000.0001)                 3.752087046606015E+03,      /* J = 48 */
(PID.TID 0000.0001)      . . .
(PID.TID 0000.0001)                 3.732366005838842E+03,      /* J = 65 */
(PID.TID 0000.0001)                 3.731093680628057E+03,      /* J = 66 */
(PID.TID 0000.0001)                 3.729821355417271E+03,      /* J = 67 */
(PID.TID 0000.0001)                 3.728761084408283E+03,      /* J = 68 */
(PID.TID 0000.0001)                 3.727488759197498E+03,      /* J = 69 */
(PID.TID 0000.0001)                 3.726428488188511E+03,      /* J = 70 */
(PID.TID 0000.0001)      . . .
(PID.TID 0000.0001)                 3.705011013806957E+03,      /* J = 88 */
(PID.TID 0000.0001)                 3.703950742797969E+03,      /* J = 89 */
(PID.TID 0000.0001)                 3.702678417587184E+03       /* J = 90 */
(PID.TID 0000.0001)     ;
(PID.TID 0000.0001) dxG =  /* dxG(:,1,:,1) ( units: m ) */
(PID.TID 0000.0001)    90 @  4.140261721044909E+03              /* I =  1: 90 */
(PID.TID 0000.0001)     ;
(PID.TID 0000.0001) dxG =  /* dxG(1,:,1,:) ( units: m ) */
(PID.TID 0000.0001)                 4.140261721044909E+03,      /* J =  1 */
(PID.TID 0000.0001)                 4.139019598272403E+03,      /* J =  2 */
(PID.TID 0000.0001)                 4.137776344777035E+03,      /* J =  3 */
(PID.TID 0000.0001)      . . .
(PID.TID 0000.0001)                 4.115210445004191E+03,      /* J = 21 */
(PID.TID 0000.0001)                 4.113946455960185E+03,      /* J = 22 */
(PID.TID 0000.0001)                 4.112681441584010E+03,      /* J = 23 */
(PID.TID 0000.0001)                 4.111415332734301E+03,      /* J = 24 */
(PID.TID 0000.0001)                 4.110148202207719E+03,      /* J = 25 */
(PID.TID 0000.0001)                 4.108879980698939E+03,      /* J = 26 */
(PID.TID 0000.0001)      . . .
(PID.TID 0000.0001)                 4.087159622456270E+03,      /* J = 43 */
(PID.TID 0000.0001)                 4.085872633696104E+03,      /* J = 44 */
(PID.TID 0000.0001)                 4.084584586739682E+03,      /* J = 45 */
(PID.TID 0000.0001)                 4.083295556063611E+03,      /* J = 46 */
(PID.TID 0000.0001)                 4.082005470653015E+03,      /* J = 47 */
(PID.TID 0000.0001)                 4.080714332157602E+03,      /* J = 48 */
(PID.TID 0000.0001)      . . .
(PID.TID 0000.0001)                 4.058611770197446E+03,      /* J = 65 */
(PID.TID 0000.0001)                 4.057302634073451E+03,      /* J = 66 */
(PID.TID 0000.0001)                 4.055992552010050E+03,      /* J = 67 */
(PID.TID 0000.0001)                 4.054681525880490E+03,      /* J = 68 */
(PID.TID 0000.0001)                 4.053369482901857E+03,      /* J = 69 */
(PID.TID 0000.0001)                 4.052056499442881E+03,      /* J = 70 */
(PID.TID 0000.0001)      . . .
(PID.TID 0000.0001)                 4.028257935157928E+03,      /* J = 88 */
(PID.TID 0000.0001)                 4.026926820812773E+03,      /* J = 89 */
(PID.TID 0000.0001)                 4.025594725676684E+03       /* J = 90 */
(PID.TID 0000.0001)     ;
(PID.TID 0000.0001) dyG =  /* dyG(:,1,:,1) ( units: m ) */
(PID.TID 0000.0001)    90 @  3.805736759660797E+03              /* I =  1: 90 */
(PID.TID 0000.0001)     ;
(PID.TID 0000.0001) dyG =  /* dyG(1,:,1,:) ( units: m ) */
(PID.TID 0000.0001)                 3.805736759660797E+03,      /* J =  1 */
(PID.TID 0000.0001)                 3.804676488651810E+03,      /* J =  2 */
(PID.TID 0000.0001)                 3.803616217642822E+03,      /* J =  3 */
(PID.TID 0000.0001)      . . .
(PID.TID 0000.0001)                 3.783259014270256E+03,      /* J = 21 */
(PID.TID 0000.0001)                 3.781986689059471E+03,      /* J = 22 */
(PID.TID 0000.0001)                 3.780926418050483E+03,      /* J = 23 */
(PID.TID 0000.0001)                 3.779654092839698E+03,      /* J = 24 */
(PID.TID 0000.0001)                 3.778593821830710E+03,      /* J = 25 */
(PID.TID 0000.0001)                 3.777321496619924E+03,      /* J = 26 */
(PID.TID 0000.0001)      . . .
(PID.TID 0000.0001)                 3.757812510054549E+03,      /* J = 43 */
(PID.TID 0000.0001)                 3.756752239045562E+03,      /* J = 44 */
(PID.TID 0000.0001)                 3.755479913834776E+03,      /* J = 45 */
(PID.TID 0000.0001)                 3.754419642825788E+03,      /* J = 46 */
(PID.TID 0000.0001)                 3.753359371816800E+03,      /* J = 47 */
(PID.TID 0000.0001)                 3.752087046606015E+03,      /* J = 48 */
(PID.TID 0000.0001)      . . .
(PID.TID 0000.0001)                 3.732366005838842E+03,      /* J = 65 */
(PID.TID 0000.0001)                 3.731093680628057E+03,      /* J = 66 */
(PID.TID 0000.0001)                 3.729821355417271E+03,      /* J = 67 */
(PID.TID 0000.0001)                 3.728761084408283E+03,      /* J = 68 */
(PID.TID 0000.0001)                 3.727488759197498E+03,      /* J = 69 */
(PID.TID 0000.0001)                 3.726428488188511E+03,      /* J = 70 */
(PID.TID 0000.0001)      . . .
(PID.TID 0000.0001)                 3.705011013806957E+03,      /* J = 88 */
(PID.TID 0000.0001)                 3.703950742797969E+03,      /* J = 89 */
(PID.TID 0000.0001)                 3.702678417587184E+03       /* J = 90 */
(PID.TID 0000.0001)     ;
(PID.TID 0000.0001) dxC =  /* dxC(:,1,:,1) ( units: m ) */
(PID.TID 0000.0001)    90 @  4.139640844360528E+03              /* I =  1: 90 */
(PID.TID 0000.0001)     ;
(PID.TID 0000.0001) dxC =  /* dxC(1,:,1,:) ( units: m ) */
(PID.TID 0000.0001)                 4.139640844360528E+03,      /* J =  1 */
(PID.TID 0000.0001)                 4.138398156068276E+03,      /* J =  2 */
(PID.TID 0000.0001)                 4.137154337892096E+03,      /* J =  3 */
(PID.TID 0000.0001)      . . .
(PID.TID 0000.0001)                 4.114578631903650E+03,      /* J = 21 */
(PID.TID 0000.0001)                 4.113314130015837E+03,      /* J = 22 */
(PID.TID 0000.0001)                 4.112048568245555E+03,      /* J = 23 */
(PID.TID 0000.0001)                 4.110781948379812E+03,      /* J = 24 */
(PID.TID 0000.0001)                 4.109514272204890E+03,      /* J = 25 */
(PID.TID 0000.0001)                 4.108245541506343E+03,      /* J = 26 */
(PID.TID 0000.0001)      . . .
(PID.TID 0000.0001)                 4.086516305844601E+03,      /* J = 43 */
(PID.TID 0000.0001)                 4.085228787830029E+03,      /* J = 44 */
(PID.TID 0000.0001)                 4.083940248837513E+03,      /* J = 45 */
(PID.TID 0000.0001)                 4.082650690638008E+03,      /* J = 46 */
(PID.TID 0000.0001)                 4.081360078528878E+03,      /* J = 47 */
(PID.TID 0000.0001)                 4.080068450672382E+03,      /* J = 48 */
(PID.TID 0000.0001)      . . .
(PID.TID 0000.0001)                 4.057957376278871E+03,      /* J = 65 */
(PID.TID 0000.0001)                 4.056647767010304E+03,      /* J = 66 */
(PID.TID 0000.0001)                 4.055337212739030E+03,      /* J = 67 */
(PID.TID 0000.0001)                 4.054025678029965E+03,      /* J = 68 */
(PID.TID 0000.0001)                 4.052713164636506E+03,      /* J = 69 */
(PID.TID 0000.0001)                 4.051399674311273E+03,      /* J = 70 */
(PID.TID 0000.0001)      . . .
(PID.TID 0000.0001)                 4.027592548301442E+03,      /* J = 88 */
(PID.TID 0000.0001)                 4.026260943407077E+03,      /* J = 89 */
(PID.TID 0000.0001)                 4.024928396702262E+03       /* J = 90 */
(PID.TID 0000.0001)     ;
(PID.TID 0000.0001) dyC =  /* dyC(:,1,:,1) ( units: m ) */
(PID.TID 0000.0001)    90 @  3.465707847078411E+03              /* I =  1: 90 */
(PID.TID 0000.0001)     ;
(PID.TID 0000.0001) dyC =  /* dyC(1,:,1,:) ( units: m ) */
(PID.TID 0000.0001)                 3.465707847078411E+03,      /* J =  1 */
(PID.TID 0000.0001)                 3.805206624156303E+03,      /* J =  2 */
(PID.TID 0000.0001)                 3.804146353147316E+03,      /* J =  3 */
(PID.TID 0000.0001)      . . .
(PID.TID 0000.0001)                 3.783683122673851E+03,      /* J = 21 */
(PID.TID 0000.0001)                 3.782622851664863E+03,      /* J = 22 */
(PID.TID 0000.0001)                 3.781456553554977E+03,      /* J = 23 */
(PID.TID 0000.0001)                 3.780290255445090E+03,      /* J = 24 */
(PID.TID 0000.0001)                 3.779123957335204E+03,      /* J = 25 */
(PID.TID 0000.0001)                 3.777957659225317E+03,      /* J = 26 */
(PID.TID 0000.0001)      . . .
(PID.TID 0000.0001)                 3.758448672659942E+03,      /* J = 43 */
(PID.TID 0000.0001)                 3.757282374550055E+03,      /* J = 44 */
(PID.TID 0000.0001)                 3.756116076440168E+03,      /* J = 45 */
(PID.TID 0000.0001)                 3.754949778330282E+03,      /* J = 46 */
(PID.TID 0000.0001)                 3.753889507321294E+03,      /* J = 47 */
(PID.TID 0000.0001)                 3.752723209211408E+03,      /* J = 48 */
(PID.TID 0000.0001)      . . .
(PID.TID 0000.0001)                 3.732896141343336E+03,      /* J = 65 */
(PID.TID 0000.0001)                 3.731729843233449E+03,      /* J = 66 */
(PID.TID 0000.0001)                 3.730457518022664E+03,      /* J = 67 */
(PID.TID 0000.0001)                 3.729291219912777E+03,      /* J = 68 */
(PID.TID 0000.0001)                 3.728124921802891E+03,      /* J = 69 */
(PID.TID 0000.0001)                 3.726958623693004E+03,      /* J = 70 */
(PID.TID 0000.0001)      . . .
(PID.TID 0000.0001)                 3.705647176412349E+03,      /* J = 88 */
(PID.TID 0000.0001)                 3.704480878302463E+03,      /* J = 89 */
(PID.TID 0000.0001)                 3.703314580192576E+03       /* J = 90 */
(PID.TID 0000.0001)     ;
(PID.TID 0000.0001) dxV =  /* dxV(:,1,:,1) ( units: m ) */
(PID.TID 0000.0001)    90 @  4.140261721044909E+03              /* I =  1: 90 */
(PID.TID 0000.0001)     ;
(PID.TID 0000.0001) dxV =  /* dxV(1,:,1,:) ( units: m ) */
(PID.TID 0000.0001)                 4.140261721044909E+03,      /* J =  1 */
(PID.TID 0000.0001)                 4.139019598272403E+03,      /* J =  2 */
(PID.TID 0000.0001)                 4.137776344777035E+03,      /* J =  3 */
(PID.TID 0000.0001)      . . .
(PID.TID 0000.0001)                 4.115210445004191E+03,      /* J = 21 */
(PID.TID 0000.0001)                 4.113946455960185E+03,      /* J = 22 */
(PID.TID 0000.0001)                 4.112681441584010E+03,      /* J = 23 */
(PID.TID 0000.0001)                 4.111415332734301E+03,      /* J = 24 */
(PID.TID 0000.0001)                 4.110148202207719E+03,      /* J = 25 */
(PID.TID 0000.0001)                 4.108879980698939E+03,      /* J = 26 */
(PID.TID 0000.0001)      . . .
(PID.TID 0000.0001)                 4.087159622456270E+03,      /* J = 43 */
(PID.TID 0000.0001)                 4.085872633696104E+03,      /* J = 44 */
(PID.TID 0000.0001)                 4.084584586739682E+03,      /* J = 45 */
(PID.TID 0000.0001)                 4.083295556063611E+03,      /* J = 46 */
(PID.TID 0000.0001)                 4.082005470653015E+03,      /* J = 47 */
(PID.TID 0000.0001)                 4.080714332157602E+03,      /* J = 48 */
(PID.TID 0000.0001)      . . .
(PID.TID 0000.0001)                 4.058611770197446E+03,      /* J = 65 */
(PID.TID 0000.0001)                 4.057302634073451E+03,      /* J = 66 */
(PID.TID 0000.0001)                 4.055992552010050E+03,      /* J = 67 */
(PID.TID 0000.0001)                 4.054681525880490E+03,      /* J = 68 */
(PID.TID 0000.0001)                 4.053369482901857E+03,      /* J = 69 */
(PID.TID 0000.0001)                 4.052056499442881E+03,      /* J = 70 */
(PID.TID 0000.0001)      . . .
(PID.TID 0000.0001)                 4.028257935157928E+03,      /* J = 88 */
(PID.TID 0000.0001)                 4.026926820812773E+03,      /* J = 89 */
(PID.TID 0000.0001)                 4.025594725676684E+03       /* J = 90 */
(PID.TID 0000.0001)     ;
(PID.TID 0000.0001) dyU =  /* dyU(:,1,:,1) ( units: m ) */
(PID.TID 0000.0001)    90 @  3.465707847078411E+03              /* I =  1: 90 */
(PID.TID 0000.0001)     ;
(PID.TID 0000.0001) dyU =  /* dyU(1,:,1,:) ( units: m ) */
(PID.TID 0000.0001)                 3.465707847078411E+03,      /* J =  1 */
(PID.TID 0000.0001)                 3.805206624156303E+03,      /* J =  2 */
(PID.TID 0000.0001)                 3.804146353147316E+03,      /* J =  3 */
(PID.TID 0000.0001)      . . .
(PID.TID 0000.0001)                 3.783683122673851E+03,      /* J = 21 */
(PID.TID 0000.0001)                 3.782622851664863E+03,      /* J = 22 */
(PID.TID 0000.0001)                 3.781456553554977E+03,      /* J = 23 */
(PID.TID 0000.0001)                 3.780290255445090E+03,      /* J = 24 */
(PID.TID 0000.0001)                 3.779123957335204E+03,      /* J = 25 */
(PID.TID 0000.0001)                 3.777957659225317E+03,      /* J = 26 */
(PID.TID 0000.0001)      . . .
(PID.TID 0000.0001)                 3.758448672659942E+03,      /* J = 43 */
(PID.TID 0000.0001)                 3.757282374550055E+03,      /* J = 44 */
(PID.TID 0000.0001)                 3.756116076440168E+03,      /* J = 45 */
(PID.TID 0000.0001)                 3.754949778330282E+03,      /* J = 46 */
(PID.TID 0000.0001)                 3.753889507321294E+03,      /* J = 47 */
(PID.TID 0000.0001)                 3.752723209211408E+03,      /* J = 48 */
(PID.TID 0000.0001)      . . .
(PID.TID 0000.0001)                 3.732896141343336E+03,      /* J = 65 */
(PID.TID 0000.0001)                 3.731729843233449E+03,      /* J = 66 */
(PID.TID 0000.0001)                 3.730457518022664E+03,      /* J = 67 */
(PID.TID 0000.0001)                 3.729291219912777E+03,      /* J = 68 */
(PID.TID 0000.0001)                 3.728124921802891E+03,      /* J = 69 */
(PID.TID 0000.0001)                 3.726958623693004E+03,      /* J = 70 */
(PID.TID 0000.0001)      . . .
(PID.TID 0000.0001)                 3.705647176412349E+03,      /* J = 88 */
(PID.TID 0000.0001)                 3.704480878302463E+03,      /* J = 89 */
(PID.TID 0000.0001)                 3.703314580192576E+03       /* J = 90 */
(PID.TID 0000.0001)     ;
(PID.TID 0000.0001) rA  =  /* rA (:,1,:,1) ( units: m^2 ) */
(PID.TID 0000.0001)    90 @  1.575438309886870E+07              /* I =  1: 90 */
(PID.TID 0000.0001)     ;
(PID.TID 0000.0001) rA  =  /* rA (1,:,1,:) ( units: m^2 ) */
(PID.TID 0000.0001)                 1.575438309886870E+07,      /* J =  1 */
(PID.TID 0000.0001)                 1.574526593103012E+07,      /* J =  2 */
(PID.TID 0000.0001)                 1.573614710072067E+07,      /* J =  3 */
(PID.TID 0000.0001)      . . .
(PID.TID 0000.0001)                 1.556651647028628E+07,      /* J = 21 */
(PID.TID 0000.0001)                 1.555649905915226E+07,      /* J = 22 */
(PID.TID 0000.0001)                 1.554735283576100E+07,      /* J = 23 */
(PID.TID 0000.0001)                 1.553733358804201E+07,      /* J = 24 */
(PID.TID 0000.0001)                 1.552818501201680E+07,      /* J = 25 */
(PID.TID 0000.0001)                 1.551816396996124E+07,      /* J = 26 */
(PID.TID 0000.0001)      . . .
(PID.TID 0000.0001)                 1.535636187397145E+07,      /* J = 43 */
(PID.TID 0000.0001)                 1.534719217327880E+07,      /* J = 44 */
(PID.TID 0000.0001)                 1.533715535169233E+07,      /* J = 45 */
(PID.TID 0000.0001)                 1.532798372586704E+07,      /* J = 46 */
(PID.TID 0000.0001)                 1.531881087890220E+07,      /* J = 47 */
(PID.TID 0000.0001)                 1.530877176172662E+07,      /* J = 48 */
(PID.TID 0000.0001)      . . .
(PID.TID 0000.0001)                 1.514578194771098E+07,      /* J = 65 */
(PID.TID 0000.0001)                 1.513573263166044E+07,      /* J = 66 */
(PID.TID 0000.0001)                 1.512568312341997E+07,      /* J = 67 */
(PID.TID 0000.0001)                 1.511649296761149E+07,      /* J = 68 */
(PID.TID 0000.0001)                 1.510644254990678E+07,      /* J = 69 */
(PID.TID 0000.0001)                 1.509725094811608E+07,      /* J = 70 */
(PID.TID 0000.0001)      . . .
(PID.TID 0000.0001)                 1.492227454024103E+07,      /* J = 88 */
(PID.TID 0000.0001)                 1.491307200194015E+07,      /* J = 89 */
(PID.TID 0000.0001)                 1.490301529699830E+07       /* J = 90 */
(PID.TID 0000.0001)     ;
(PID.TID 0000.0001) rAw =  /* rAw(:,1,:,1) ( units: m^2 ) */
(PID.TID 0000.0001)    90 @  1.575438309886870E+07              /* I =  1: 90 */
(PID.TID 0000.0001)     ;
(PID.TID 0000.0001) rAw =  /* rAw(1,:,1,:) ( units: m^2 ) */
(PID.TID 0000.0001)                 1.575438309886870E+07,      /* J =  1 */
(PID.TID 0000.0001)                 1.574526593103012E+07,      /* J =  2 */
(PID.TID 0000.0001)                 1.573614710072067E+07,      /* J =  3 */
(PID.TID 0000.0001)      . . .
(PID.TID 0000.0001)                 1.556651647028628E+07,      /* J = 21 */
(PID.TID 0000.0001)                 1.555649905915226E+07,      /* J = 22 */
(PID.TID 0000.0001)                 1.554735283576100E+07,      /* J = 23 */
(PID.TID 0000.0001)                 1.553733358804201E+07,      /* J = 24 */
(PID.TID 0000.0001)                 1.552818501201680E+07,      /* J = 25 */
(PID.TID 0000.0001)                 1.551816396996124E+07,      /* J = 26 */
(PID.TID 0000.0001)      . . .
(PID.TID 0000.0001)                 1.535636187397145E+07,      /* J = 43 */
(PID.TID 0000.0001)                 1.534719217327880E+07,      /* J = 44 */
(PID.TID 0000.0001)                 1.533715535169233E+07,      /* J = 45 */
(PID.TID 0000.0001)                 1.532798372586704E+07,      /* J = 46 */
(PID.TID 0000.0001)                 1.531881087890220E+07,      /* J = 47 */
(PID.TID 0000.0001)                 1.530877176172662E+07,      /* J = 48 */
(PID.TID 0000.0001)      . . .
(PID.TID 0000.0001)                 1.514578194771098E+07,      /* J = 65 */
(PID.TID 0000.0001)                 1.513573263166044E+07,      /* J = 66 */
(PID.TID 0000.0001)                 1.512568312341997E+07,      /* J = 67 */
(PID.TID 0000.0001)                 1.511649296761149E+07,      /* J = 68 */
(PID.TID 0000.0001)                 1.510644254990678E+07,      /* J = 69 */
(PID.TID 0000.0001)                 1.509725094811608E+07,      /* J = 70 */
(PID.TID 0000.0001)      . . .
(PID.TID 0000.0001)                 1.492227454024103E+07,      /* J = 88 */
(PID.TID 0000.0001)                 1.491307200194015E+07,      /* J = 89 */
(PID.TID 0000.0001)                 1.490301529699830E+07       /* J = 90 */
(PID.TID 0000.0001)     ;
(PID.TID 0000.0001) rAs =  /* rAs(:,1,:,1) ( units: m^2 ) */
(PID.TID 0000.0001)    90 @  1.434874515713397E+07              /* I =  1: 90 */
(PID.TID 0000.0001)     ;
(PID.TID 0000.0001) rAs =  /* rAs(1,:,1,:) ( units: m^2 ) */
(PID.TID 0000.0001)                 1.434874515713397E+07,      /* J =  1 */
(PID.TID 0000.0001)                 1.574982488807916E+07,      /* J =  2 */
(PID.TID 0000.0001)                 1.574070688790848E+07,      /* J =  3 */
(PID.TID 0000.0001)      . . .
(PID.TID 0000.0001)                 1.557065234602267E+07,      /* J = 21 */
(PID.TID 0000.0001)                 1.556150804841762E+07,      /* J = 22 */
(PID.TID 0000.0001)                 1.555192629706736E+07,      /* J = 23 */
(PID.TID 0000.0001)                 1.554234349323534E+07,      /* J = 24 */
(PID.TID 0000.0001)                 1.553275964738865E+07,      /* J = 25 */
(PID.TID 0000.0001)                 1.552317476996653E+07,      /* J = 26 */
(PID.TID 0000.0001)      . . .
(PID.TID 0000.0001)                 1.536137984435806E+07,      /* J = 43 */
(PID.TID 0000.0001)                 1.535177734997811E+07,      /* J = 44 */
(PID.TID 0000.0001)                 1.534217401942485E+07,      /* J = 45 */
(PID.TID 0000.0001)                 1.533256986292950E+07,      /* J = 46 */
(PID.TID 0000.0001)                 1.532339762548036E+07,      /* J = 47 */
(PID.TID 0000.0001)                 1.531379157383674E+07,      /* J = 48 */
(PID.TID 0000.0001)      . . .
(PID.TID 0000.0001)                 1.515037634627304E+07,      /* J = 65 */
(PID.TID 0000.0001)                 1.514075752265306E+07,      /* J = 66 */
(PID.TID 0000.0001)                 1.513070810933390E+07,      /* J = 67 */
(PID.TID 0000.0001)                 1.512108834570999E+07,      /* J = 68 */
(PID.TID 0000.0001)                 1.511146798829233E+07,      /* J = 69 */
(PID.TID 0000.0001)                 1.510184704705331E+07,      /* J = 70 */
(PID.TID 0000.0001)      . . .
(PID.TID 0000.0001)                 1.492730285605174E+07,      /* J = 88 */
(PID.TID 0000.0001)                 1.491767354877487E+07,      /* J = 89 */
(PID.TID 0000.0001)                 1.490804385545228E+07       /* J = 90 */
(PID.TID 0000.0001)     ;
(PID.TID 0000.0001) globalArea = /* Integrated horizontal Area (m^2) */
(PID.TID 0000.0001)                 1.130146430983181E+13
(PID.TID 0000.0001)     ;
(PID.TID 0000.0001) // =======================================================
(PID.TID 0000.0001) // End of Model config. summary
(PID.TID 0000.0001) // =======================================================
(PID.TID 0000.0001) 
(PID.TID 0000.0001) == Packages configuration : Check & print summary ==
(PID.TID 0000.0001) 
(PID.TID 0000.0001) OBCS_CHECK: #define ALLOW_OBCS
(PID.TID 0000.0001) OBCS_CHECK: start summary:
(PID.TID 0000.0001) useOBCSprescribe = /* prescribe OB values */
(PID.TID 0000.0001)                   T
(PID.TID 0000.0001)     ;
(PID.TID 0000.0001) useOBCSbalance = /* balance the flow through OB */
(PID.TID 0000.0001)                   T
(PID.TID 0000.0001)     ;
(PID.TID 0000.0001) OBCS_balanceFacN = /* Northern OB Factor for balancing OB flow [-] */
(PID.TID 0000.0001)                -1.000000000000000E+00
(PID.TID 0000.0001)     ;
(PID.TID 0000.0001) OBCS_balanceFacS = /* Southern OB Factor for balancing OB flow [-] */
(PID.TID 0000.0001)                -1.000000000000000E+00
(PID.TID 0000.0001)     ;
(PID.TID 0000.0001) OBCS_balanceFacE = /* Eastern  OB Factor for balancing OB flow [-] */
(PID.TID 0000.0001)                 1.000000000000000E+00
(PID.TID 0000.0001)     ;
(PID.TID 0000.0001) OBCS_balanceFacW = /* Western  OB Factor for balancing OB flow [-] */
(PID.TID 0000.0001)                 1.000000000000000E+00
(PID.TID 0000.0001)     ;
(PID.TID 0000.0001) OBCS_uvApplyFac = /* Factor to apply to U,V 2nd column/row */
(PID.TID 0000.0001)                 1.000000000000000E+00
(PID.TID 0000.0001)     ;
(PID.TID 0000.0001) OBCS_u1_adv_T = /* Temp uses upwind adv-scheme @ OB */
(PID.TID 0000.0001)                       1
(PID.TID 0000.0001)     ;
(PID.TID 0000.0001) OBCS_u1_adv_S = /* Salt uses upwind adv-scheme @ OB */
(PID.TID 0000.0001)                       1
(PID.TID 0000.0001)     ;
(PID.TID 0000.0001) OBCS_monitorFreq = /* monitor output frequency [s] */
(PID.TID 0000.0001)                 2.400000000000000E+02
(PID.TID 0000.0001)     ;
(PID.TID 0000.0001) OBCS_monSelect = /* select group of variables to monitor */
(PID.TID 0000.0001)                       3
(PID.TID 0000.0001)     ;
(PID.TID 0000.0001) useOBCStides = /* apply tidal forcing through OB */
(PID.TID 0000.0001)                   T
(PID.TID 0000.0001)     ;
(PID.TID 0000.0001) tidalPeriod = /* (s) */
(PID.TID 0000.0001)                 4.471416500000000E+04,      /* I =  1 */
(PID.TID 0000.0001)                 4.320000100000000E+04,      /* I =  2 */
(PID.TID 0000.0001)                 4.557005400000000E+04,      /* I =  3 */
(PID.TID 0000.0001)                 4.308205000000000E+04,      /* I =  4 */
(PID.TID 0000.0001)                 8.616407700000000E+04,      /* I =  5 */
(PID.TID 0000.0001)                 9.294963600000000E+04,      /* I =  6 */
(PID.TID 0000.0001)                 8.663720000000000E+04,      /* I =  7 */
(PID.TID 0000.0001)                 9.672608600000000E+04,      /* I =  8 */
(PID.TID 0000.0001)                 1.180295546000000E+06,      /* I =  9 */
(PID.TID 0000.0001)                 2.380715864000000E+06,      /* I = 10 */
(PID.TID 0000.0001)                 2.235709100000000E+04,      /* I = 11 */
(PID.TID 0000.0001)                 2.197202200000000E+04,      /* I = 12 */
(PID.TID 0000.0001)                 2.256904200000000E+04       /* I = 13 */
(PID.TID 0000.0001)     ;
(PID.TID 0000.0001) OB_indexNone = /* null value for OB index (i.e. no OB) */
(PID.TID 0000.0001)                     -99
(PID.TID 0000.0001)     ;
(PID.TID 0000.0001) ======== Tile bi=   1 , bj=   1 ========
(PID.TID 0000.0001)  OB_Jn = /* Northern OB local indices */
(PID.TID 0000.0001)    98 @      -99                            /* I = -3: 94 */
(PID.TID 0000.0001)  OB_Js = /* Southern OB local indices */
(PID.TID 0000.0001)     4 @      -99,                           /* I = -3:  0 */
(PID.TID 0000.0001)    94 @        8                            /* I =  1: 94 */
(PID.TID 0000.0001)  OB_Ie = /* Eastern OB local indices */
(PID.TID 0000.0001)    98 @      -99                            /* J = -3: 94 */
(PID.TID 0000.0001)  OB_Iw = /* Western OB local indices */
(PID.TID 0000.0001)    98 @      -99                            /* J = -3: 94 */
(PID.TID 0000.0001) OBCS_CHECK: end summary.
(PID.TID 0000.0001) OBCS_CHECK: set-up OK
(PID.TID 0000.0001) OBCS_CHECK: check Inside Mask and OB locations: OK
(PID.TID 0000.0001) KPP_CHECK: #define ALLOW_KPP
(PID.TID 0000.0001)  kpp_freq = /* frequency of KPP calculation */
(PID.TID 0000.0001)                 2.400000000000000E+02
(PID.TID 0000.0001)     ;
(PID.TID 0000.0001) KPP_ghatUseTotalDiffus= /* non-local term fct of total diffus */
(PID.TID 0000.0001)                   F
(PID.TID 0000.0001)     ;
(PID.TID 0000.0001) KPPuseDoubleDiff = /* include double diffusive contrib */
(PID.TID 0000.0001)                   F
(PID.TID 0000.0001)     ;
(PID.TID 0000.0001) LimitHblStable = /* limits depth of hbl if stable cond.*/
(PID.TID 0000.0001)                   T
(PID.TID 0000.0001)     ;
(PID.TID 0000.0001)  minKPPhbl = /* minimum KPPhbl value [m] */
(PID.TID 0000.0001)                 2.500000000000000E+00
(PID.TID 0000.0001)     ;
(PID.TID 0000.0001)  epsln     = /* constant [-] */
(PID.TID 0000.0001)                 9.999999999999999E-21
(PID.TID 0000.0001)     ;
(PID.TID 0000.0001)  phepsi    = /* constant [-] */
(PID.TID 0000.0001)                 1.000000000000000E-10
(PID.TID 0000.0001)     ;
(PID.TID 0000.0001)  epsilon   = /* constant [-] */
(PID.TID 0000.0001)                 1.000000000000000E-01
(PID.TID 0000.0001)     ;
(PID.TID 0000.0001)  vonk      = /* Von Karmans constant [-] */
(PID.TID 0000.0001)                 4.000000000000000E-01
(PID.TID 0000.0001)     ;
(PID.TID 0000.0001)  dB_dz     = /* maximum N^2 in mixed layer [s^-2] */
(PID.TID 0000.0001)                 5.200000000000000E-05
(PID.TID 0000.0001)     ;
(PID.TID 0000.0001)  conc1     = /* scalar constant [-] */
(PID.TID 0000.0001)                 5.000000000000000E+00
(PID.TID 0000.0001)     ;
(PID.TID 0000.0001)  conam     = /* scalar constant [-] */
(PID.TID 0000.0001)                 1.257000000000000E+00
(PID.TID 0000.0001)     ;
(PID.TID 0000.0001)  concm     = /* scalar constant [-] */
(PID.TID 0000.0001)                 8.380000000000001E+00
(PID.TID 0000.0001)     ;
(PID.TID 0000.0001)  conc2     = /* scalar constant [-] */
(PID.TID 0000.0001)                 1.600000000000000E+01
(PID.TID 0000.0001)     ;
(PID.TID 0000.0001)  conas     = /* scalar constant [-] */
(PID.TID 0000.0001)                -2.886000000000000E+01
(PID.TID 0000.0001)     ;
(PID.TID 0000.0001)  concs     = /* scalar constant [-] */
(PID.TID 0000.0001)                 9.895999999999999E+01
(PID.TID 0000.0001)     ;
(PID.TID 0000.0001)  conc3     = /* scalar constant [-] */
(PID.TID 0000.0001)                 1.600000000000000E+01
(PID.TID 0000.0001)     ;
(PID.TID 0000.0001)  zetam     = /* scalar constant [-] */
(PID.TID 0000.0001)                -2.000000000000000E-01
(PID.TID 0000.0001)     ;
(PID.TID 0000.0001)  zetas     = /* scalar constant [-] */
(PID.TID 0000.0001)                -1.000000000000000E+00
(PID.TID 0000.0001)     ;
(PID.TID 0000.0001)  Ricr      = /* critical bulk Richardson Number [-] */
(PID.TID 0000.0001)                 3.000000000000000E-01
(PID.TID 0000.0001)     ;
(PID.TID 0000.0001)  cekman    = /* coeff for Ekman depth [-] */
(PID.TID 0000.0001)                 7.000000000000000E-01
(PID.TID 0000.0001)     ;
(PID.TID 0000.0001)  cmonob    = /* coeff for Monin-Obukhov depth [-] */
(PID.TID 0000.0001)                 1.000000000000000E+00
(PID.TID 0000.0001)     ;
(PID.TID 0000.0001)  concv     = /* buoyancy freq ratio [-] */
(PID.TID 0000.0001)                 1.800000000000000E+00
(PID.TID 0000.0001)     ;
(PID.TID 0000.0001)  hbf       = /* solar radiation depth ratio [-] */
(PID.TID 0000.0001)                 1.000000000000000E+00
(PID.TID 0000.0001)     ;
(PID.TID 0000.0001)  zmin      = /* minimum for zehat in table [m3/s3] */
(PID.TID 0000.0001)                -4.000000000000000E-07
(PID.TID 0000.0001)     ;
(PID.TID 0000.0001)  zmax      = /* maximum for zehat in table [m3/s3] */
(PID.TID 0000.0001)                 0.000000000000000E+00
(PID.TID 0000.0001)     ;
(PID.TID 0000.0001)  umin      = /* minimum for ustar in table [m/s] */
(PID.TID 0000.0001)                 0.000000000000000E+00
(PID.TID 0000.0001)     ;
(PID.TID 0000.0001)  umax      = /* maximum for ustar in table [m/s] */
(PID.TID 0000.0001)                 4.000000000000000E-02
(PID.TID 0000.0001)     ;
(PID.TID 0000.0001) num_v_smooth_Ri = /* number of vertical smoothing */
(PID.TID 0000.0001)                       0
(PID.TID 0000.0001)     ;
(PID.TID 0000.0001)  Riinfty   = /* shear instability Ri number limit [-] */
(PID.TID 0000.0001)                 7.000000000000000E-01
(PID.TID 0000.0001)     ;
(PID.TID 0000.0001)  BVSQcon   = /* Brunt-Vaisala squared (=N^2) [s^-2] */
(PID.TID 0000.0001)                -2.000000000000000E-05
(PID.TID 0000.0001)     ;
(PID.TID 0000.0001)  difm0     = /* max viscosity from shear instab. [m2/s] */
(PID.TID 0000.0001)                 5.000000000000000E-03
(PID.TID 0000.0001)     ;
(PID.TID 0000.0001)  difs0     = /* max diffusiv. from shear instab. [m2/s] */
(PID.TID 0000.0001)                 5.000000000000000E-03
(PID.TID 0000.0001)     ;
(PID.TID 0000.0001)  dift0     = /* max diffusiv. from shear instab. [m2/s] */
(PID.TID 0000.0001)                 5.000000000000000E-03
(PID.TID 0000.0001)     ;
(PID.TID 0000.0001)  difmcon   = /* convective viscosity [m2/s] */
(PID.TID 0000.0001)                 1.000000000000000E-01
(PID.TID 0000.0001)     ;
(PID.TID 0000.0001)  difscon   = /* convective diffusiv. [m2/s] */
(PID.TID 0000.0001)                 1.000000000000000E-01
(PID.TID 0000.0001)     ;
(PID.TID 0000.0001)  diftcon   = /* convective diffusiv. [m2/s] */
(PID.TID 0000.0001)                 1.000000000000000E-01
(PID.TID 0000.0001)     ;
(PID.TID 0000.0001)  Rrho0     = /* double diffusion density ratio [-] */
(PID.TID 0000.0001)                 1.900000000000000E+00
(PID.TID 0000.0001)     ;
(PID.TID 0000.0001)  dsfmax    = /* max diffusiv. for salt fingering [m2/s] */
(PID.TID 0000.0001)                 1.000000000000000E-02
(PID.TID 0000.0001)     ;
(PID.TID 0000.0001)  cstar     = /* coeff for non-locak transport [-] */
(PID.TID 0000.0001)                 1.000000000000000E+01
(PID.TID 0000.0001)     ;
(PID.TID 0000.0001) KPPwriteState = /* write KPP fields to file */
(PID.TID 0000.0001)                   F
(PID.TID 0000.0001)     ;
(PID.TID 0000.0001)  kpp_dumpFreq = /* dump freq of KPP output */
(PID.TID 0000.0001)                 0.000000000000000E+00
(PID.TID 0000.0001)     ;
(PID.TID 0000.0001)  kpp_taveFreq = /* time-averaging freq of KPP output */
(PID.TID 0000.0001)                 0.000000000000000E+00
(PID.TID 0000.0001)     ;
(PID.TID 0000.0001) 
(PID.TID 0000.0001) EXF_CHECK: #define ALLOW_EXF
(PID.TID 0000.0001) GAD_CHECK: #define ALLOW_GENERIC_ADVDIFF
(PID.TID 0000.0001) // =======================================================
(PID.TID 0000.0001) // Check Model config. (CONFIG_CHECK):
(PID.TID 0000.0001) // CONFIG_CHECK : Normal End
(PID.TID 0000.0001) // =======================================================
(PID.TID 0000.0001) 
(PID.TID 0000.0001)  MDS_READ_FIELD: opening global file: U0_2160x540x100.bin
(PID.TID 0000.0001)  MDS_READ_FIELD: opening global file: V0_2160x540x100.bin
(PID.TID 0000.0001)  MDS_READ_FIELD: opening global file: T0_2160x540x100.bin
(PID.TID 0000.0001)  MDS_READ_FIELD: opening global file: S0_2160x540x100.bin
(PID.TID 0000.0001) Start initial hydrostatic pressure computation
(PID.TID 0000.0001) Pressure is predetermined for buoyancyRelation OCEANIC
(PID.TID 0000.0001) 
(PID.TID 0000.0001)  write diagnostics summary to file ioUnit:      6
Iter.Nb:         0 ; Time(s):  0.0000000000000E+00
------------------------------------------------------------------------
2D/3D diagnostics: Number of lists:     2
------------------------------------------------------------------------
listId=    1 ; file name: diags/surface
 nFlds, nActive,       freq     &     phase        , nLev               
    5  |    5  |      3600.000000         0.000000 |   1
 levels:   1
 diag# | name   |   ipt  |  iMate | kLev|   count |   mate.C|           
    23 |ETAN    |      1 |      0 |   1 |       0 |
    80 |oceTAUX |      2 |      3 |   1 |       0 |       0 |
    81 |oceTAUY |      3 |      2 |   1 |       0 |       0 |
   185 |EXFuwind|      4 |      0 |   1 |       0 |
   186 |EXFvwind|      5 |      0 |   1 |       0 |
------------------------------------------------------------------------
listId=    2 ; file name: diags/interior
 nFlds, nActive,       freq     &     phase        , nLev               
    9  |    9  |   2592000.000000         0.000000 | 100
 levels:   1   2   3   4   5   6   7   8   9  10  11  12  13  14  15  16  17  18  19  20  21  22  23  24  25
 levels:  26  27  28  29  30  31  32  33  34  35  36  37  38  39  40  41  42  43  44  45  46  47  48  49  50
 levels:  51  52  53  54  55  56  57  58  59  60  61  62  63  64  65  66  67  68  69  70  71  72  73  74  75
 levels:  76  77  78  79  80  81  82  83  84  85  86  87  88  89  90  91  92  93  94  95  96  97  98  99 100
 diag# | name   |   ipt  |  iMate | kLev|   count |   mate.C|           
    26 |THETA   |      6 |      0 | 100 |       0 |
    27 |SALT    |    106 |      0 | 100 |       0 |
    30 |UVEL    |    206 |    306 | 100 |       0 |       0 |
    31 |VVEL    |    306 |    206 | 100 |       0 |       0 |
    32 |WVEL    |    406 |      0 | 100 |       0 |
    36 |UVELSQ  |    506 |    606 | 100 |       0 |       0 |
    37 |VVELSQ  |    606 |    506 | 100 |       0 |       0 |
    52 |WTHMASS |    706 |      0 | 100 |       0 |
    55 |WSLTMASS|    806 |      0 | 100 |       0 |
------------------------------------------------------------------------
Global & Regional Statistics diagnostics: Number of lists:     0
------------------------------------------------------------------------
(PID.TID 0000.0001)  MDS_READ_SEC_XZ: opening global file: OBNam_2160x13.bin
(PID.TID 0000.0001)  MDS_READ_SEC_XZ: opening global file: OBNph_2160x13.bin
(PID.TID 0000.0001)  MDS_READ_SEC_XZ: opening global file: OBSam_2160x13.bin
(PID.TID 0000.0001)  MDS_READ_SEC_XZ: opening global file: OBSph_2160x13.bin
(PID.TID 0000.0001)  MDS_READ_SEC_XZ: opening global file: OBNu_2160x100x26.bin
(PID.TID 0000.0001)  MDS_READ_SEC_XZ: opening global file: OBNu_2160x100x26.bin
(PID.TID 0000.0001)  MDS_READ_SEC_XZ: opening global file: OBNv_2160x100x26.bin
(PID.TID 0000.0001)  MDS_READ_SEC_XZ: opening global file: OBNv_2160x100x26.bin
(PID.TID 0000.0001)  MDS_READ_SEC_XZ: opening global file: OBNt_2160x100x26.bin
(PID.TID 0000.0001)  MDS_READ_SEC_XZ: opening global file: OBNt_2160x100x26.bin
(PID.TID 0000.0001)  MDS_READ_SEC_XZ: opening global file: OBNs_2160x100x26.bin
(PID.TID 0000.0001)  MDS_READ_SEC_XZ: opening global file: OBNs_2160x100x26.bin
(PID.TID 0000.0001)  MDS_READ_SEC_XZ: opening global file: OBSu_2160x100x26.bin
(PID.TID 0000.0001)  MDS_READ_SEC_XZ: opening global file: OBSu_2160x100x26.bin
(PID.TID 0000.0001)  MDS_READ_SEC_XZ: opening global file: OBSv_2160x100x26.bin
(PID.TID 0000.0001)  MDS_READ_SEC_XZ: opening global file: OBSv_2160x100x26.bin
(PID.TID 0000.0001)  MDS_READ_SEC_XZ: opening global file: OBSt_2160x100x26.bin
(PID.TID 0000.0001)  MDS_READ_SEC_XZ: opening global file: OBSt_2160x100x26.bin
(PID.TID 0000.0001)  MDS_READ_SEC_XZ: opening global file: OBSs_2160x100x26.bin
(PID.TID 0000.0001)  MDS_READ_SEC_XZ: opening global file: OBSs_2160x100x26.bin
(PID.TID 0000.0001) // =======================================================
(PID.TID 0000.0001) // Model current state
(PID.TID 0000.0001) // =======================================================
(PID.TID 0000.0001) 
(PID.TID 0000.0001) // =======================================================
(PID.TID 0000.0001) // Begin MONITOR dynamic field statistics
(PID.TID 0000.0001) // =======================================================
(PID.TID 0000.0001) %MON time_tsnumber                =                     0
(PID.TID 0000.0001) %MON time_secondsf                =   0.0000000000000E+00
(PID.TID 0000.0001) %MON dynstat_eta_max              =   0.0000000000000E+00
(PID.TID 0000.0001) %MON dynstat_eta_min              =   0.0000000000000E+00
(PID.TID 0000.0001) %MON dynstat_eta_mean             =   0.0000000000000E+00
(PID.TID 0000.0001) %MON dynstat_eta_sd               =   0.0000000000000E+00
(PID.TID 0000.0001) %MON dynstat_eta_del2             =   0.0000000000000E+00
(PID.TID 0000.0001) %MON dynstat_uvel_max             =   1.2655940055847E+00
(PID.TID 0000.0001) %MON dynstat_uvel_min             =  -6.7179697751999E-01
(PID.TID 0000.0001) %MON dynstat_uvel_mean            =   3.8933782453988E-03
(PID.TID 0000.0001) %MON dynstat_uvel_sd              =   5.2086469330268E-02
(PID.TID 0000.0001) %MON dynstat_uvel_del2            =   3.0019794494422E-07
(PID.TID 0000.0001) %MON dynstat_vvel_max             =   1.8766679377822E+00
(PID.TID 0000.0001) %MON dynstat_vvel_min             =  -8.8630950450897E-01
(PID.TID 0000.0001) %MON dynstat_vvel_mean            =  -1.8315008085781E-04
(PID.TID 0000.0001) %MON dynstat_vvel_sd              =   4.8401112616991E-02
(PID.TID 0000.0001) %MON dynstat_vvel_del2            =   3.9531900049683E-07
(PID.TID 0000.0001) %MON dynstat_wvel_max             =   8.0878572016153E-02
(PID.TID 0000.0001) %MON dynstat_wvel_min             =  -1.0644865410817E-01
(PID.TID 0000.0001) %MON dynstat_wvel_mean            =  -1.8564800099859E-06
(PID.TID 0000.0001) %MON dynstat_wvel_sd              =   1.3360682389456E-03
(PID.TID 0000.0001) %MON dynstat_wvel_del2            =   3.7531921664199E-07
(PID.TID 0000.0001) %MON dynstat_theta_max            =   2.6144617080688E+01
(PID.TID 0000.0001) %MON dynstat_theta_min            =   1.4688636064529E+00
(PID.TID 0000.0001) %MON dynstat_theta_mean           =   5.5098811020494E+00
(PID.TID 0000.0001) %MON dynstat_theta_sd             =   4.7735348546542E+00
(PID.TID 0000.0001) %MON dynstat_theta_del2           =   4.0189244228695E-06
(PID.TID 0000.0001) %MON dynstat_salt_max             =   3.9185241699219E+01
(PID.TID 0000.0001) %MON dynstat_salt_min             =   3.3089591979980E+01
(PID.TID 0000.0001) %MON dynstat_salt_mean            =   3.5173374558496E+01
(PID.TID 0000.0001) %MON dynstat_salt_sd              =   3.7891790794924E-01
(PID.TID 0000.0001) %MON dynstat_salt_del2            =   4.9655867703385E-07
(PID.TID 0000.0001) %MON dynstat_sst_max              =   2.6144517898560E+01
(PID.TID 0000.0001) %MON dynstat_sst_min              =   4.0907053947449E+00
(PID.TID 0000.0001) %MON dynstat_sst_mean             =   1.9650344179206E+01
(PID.TID 0000.0001) %MON dynstat_sst_sd               =   3.6388127143234E+00
(PID.TID 0000.0001) %MON dynstat_sst_del2             =   1.9236263370514E-05
(PID.TID 0000.0001) %MON dynstat_sss_max              =   3.7335128784180E+01
(PID.TID 0000.0001) %MON dynstat_sss_min              =   3.3089591979980E+01
(PID.TID 0000.0001) %MON dynstat_sss_mean             =   3.5867950426451E+01
(PID.TID 0000.0001) %MON dynstat_sss_sd               =   4.8717343265566E-01
(PID.TID 0000.0001) %MON dynstat_sss_del2             =   5.0430181870384E-06
(PID.TID 0000.0001) %MON forcing_qnet_max             =   0.0000000000000E+00
(PID.TID 0000.0001) %MON forcing_qnet_min             =   0.0000000000000E+00
(PID.TID 0000.0001) %MON forcing_qnet_mean            =   0.0000000000000E+00
(PID.TID 0000.0001) %MON forcing_qnet_sd              =   0.0000000000000E+00
(PID.TID 0000.0001) %MON forcing_qnet_del2            =   0.0000000000000E+00
(PID.TID 0000.0001) %MON forcing_qsw_max              =   0.0000000000000E+00
(PID.TID 0000.0001) %MON forcing_qsw_min              =   0.0000000000000E+00
(PID.TID 0000.0001) %MON forcing_qsw_mean             =   0.0000000000000E+00
(PID.TID 0000.0001) %MON forcing_qsw_sd               =   0.0000000000000E+00
(PID.TID 0000.0001) %MON forcing_qsw_del2             =   0.0000000000000E+00
(PID.TID 0000.0001) %MON forcing_empmr_max            =   0.0000000000000E+00
(PID.TID 0000.0001) %MON forcing_empmr_min            =   0.0000000000000E+00
(PID.TID 0000.0001) %MON forcing_empmr_mean           =   0.0000000000000E+00
(PID.TID 0000.0001) %MON forcing_empmr_sd             =   0.0000000000000E+00
(PID.TID 0000.0001) %MON forcing_empmr_del2           =   0.0000000000000E+00
(PID.TID 0000.0001) %MON forcing_fu_max               =   0.0000000000000E+00
(PID.TID 0000.0001) %MON forcing_fu_min               =   0.0000000000000E+00
(PID.TID 0000.0001) %MON forcing_fu_mean              =   0.0000000000000E+00
(PID.TID 0000.0001) %MON forcing_fu_sd                =   0.0000000000000E+00
(PID.TID 0000.0001) %MON forcing_fu_del2              =   0.0000000000000E+00
(PID.TID 0000.0001) %MON forcing_fv_max               =   0.0000000000000E+00
(PID.TID 0000.0001) %MON forcing_fv_min               =   0.0000000000000E+00
(PID.TID 0000.0001) %MON forcing_fv_mean              =   0.0000000000000E+00
(PID.TID 0000.0001) %MON forcing_fv_sd                =   0.0000000000000E+00
(PID.TID 0000.0001) %MON forcing_fv_del2              =   0.0000000000000E+00
(PID.TID 0000.0001) %MON trAdv_CFL_u_max              =   0.0000000000000E+00
(PID.TID 0000.0001) %MON trAdv_CFL_v_max              =   0.0000000000000E+00
(PID.TID 0000.0001) %MON trAdv_CFL_w_max              =   0.0000000000000E+00
(PID.TID 0000.0001) %MON advcfl_uvel_max              =   7.6757822680034E-02
(PID.TID 0000.0001) %MON advcfl_vvel_max              =   1.1860877864772E-01
(PID.TID 0000.0001) %MON advcfl_wvel_max              =   1.0219070794384E+01
(PID.TID 0000.0001) %MON advcfl_W_hf_max              =   5.0990576573765E+00
(PID.TID 0000.0001) %MON pe_b_mean                    =   0.0000000000000E+00
(PID.TID 0000.0001) %MON ke_max                       =   1.6014653258787E+00
(PID.TID 0000.0001) %MON ke_mean                      =   2.5166672230983E-03
(PID.TID 0000.0001) %MON ke_vol                       =   4.5818637279720E+16
(PID.TID 0000.0001) %MON vort_r_min                   =  -2.7112786765354E-04
(PID.TID 0000.0001) %MON vort_r_max                   =   4.5284213837033E-04
(PID.TID 0000.0001) %MON vort_a_mean                  =   8.2147631506710E-05
(PID.TID 0000.0001) %MON vort_a_sd                    =   1.0110316133288E-05
(PID.TID 0000.0001) %MON vort_p_mean                  =   8.4848853092653E-05
(PID.TID 0000.0001) %MON vort_p_sd                    =   3.4983760879124E-05
(PID.TID 0000.0001) %MON surfExpan_theta_mean         =   2.0592395504451E-05
(PID.TID 0000.0001) %MON surfExpan_salt_mean          =  -1.7210634086920E-04
(PID.TID 0000.0001) // =======================================================
(PID.TID 0000.0001) // End MONITOR dynamic field statistics
(PID.TID 0000.0001) // =======================================================
(PID.TID 0000.0001) // =======================================================
(PID.TID 0000.0001) // Begin OBCS MONITOR field statistics
(PID.TID 0000.0001) // =======================================================
(PID.TID 0000.0001) %MON obc_N_vVel_max               =   6.9579085314553E-01
(PID.TID 0000.0001) %MON obc_N_vVel_min               =  -3.2183263391360E-01
(PID.TID 0000.0001) %MON obc_N_vVel_mean              =   1.3107185862961E-02
(PID.TID 0000.0001) %MON obc_N_vVel_sd                =   6.4693829583860E-02
(PID.TID 0000.0001) %MON obc_N_vVel_Int               =   1.8763047269621E+08
(PID.TID 0000.0001) %MON obc_S_vVel_max               =   1.8766679377822E+00
(PID.TID 0000.0001) %MON obc_S_vVel_min               =  -2.6178254188100E-01
(PID.TID 0000.0001) %MON obc_S_vVel_mean              =   4.1390867252904E-03
(PID.TID 0000.0001) %MON obc_S_vVel_sd                =   3.5756336765240E-02
(PID.TID 0000.0001) %MON obc_S_vVel_Int               =   1.2600580191554E+08
(PID.TID 0000.0001) %MON obc_N_theta_max              =   1.6390861045164E+01
(PID.TID 0000.0001) %MON obc_N_theta_min              =   1.8895907269856E+00
(PID.TID 0000.0001) %MON obc_N_theta_mean             =   5.1589805018888E+00
(PID.TID 0000.0001) %MON obc_N_theta_sd               =   3.4827339404776E+00
(PID.TID 0000.0001) %MON obc_S_theta_max              =   2.5544941308807E+01
(PID.TID 0000.0001) %MON obc_S_theta_min              =   1.4632956408867E+00
(PID.TID 0000.0001) %MON obc_S_theta_mean             =   5.4595577802114E+00
(PID.TID 0000.0001) %MON obc_S_theta_sd               =   5.3559370357223E+00
(PID.TID 0000.0001) %MON obc_N_salt_max               =   3.5910867647958E+01
(PID.TID 0000.0001) %MON obc_N_salt_min               =   3.3295014070045E+01
(PID.TID 0000.0001) %MON obc_N_salt_mean              =   3.5114564316350E+01
(PID.TID 0000.0001) %MON obc_N_salt_sd                =   3.0984932953669E-01
(PID.TID 0000.0001) %MON obc_S_salt_max               =   3.7318346630621E+01
(PID.TID 0000.0001) %MON obc_S_salt_min               =   3.4844694313817E+01
(PID.TID 0000.0001) %MON obc_S_salt_mean              =   3.5168372938834E+01
(PID.TID 0000.0001) %MON obc_S_salt_sd                =   4.5717110794259E-01
(PID.TID 0000.0001) // =======================================================
(PID.TID 0000.0001) // End OBCS MONITOR field statistics
(PID.TID 0000.0001) // =======================================================
(PID.TID 0000.0001)  EXF_INTERP_READ: opening file: era5/ERA5_u10m_2008
(PID.TID 0000.0001)  EXF_INTERP_READ: opening file: era5/ERA5_v10m_2008
(PID.TID 0000.0001)  EXF_INTERP_UV: fileU="era5/ERA5_u10m_2008", rec=     1 , x-Per,P.Sym=    T    T
(PID.TID 0000.0001)  S.edge (j=-1,0,1) : proc= 2.2 1.1 0.0, yIn=  -90.215115  -90.000000  -89.784885
(PID.TID 0000.0001)  N.edge (j=+0,+1,+2) proc= 0.0 1.1 2.2, yIn=   89.784885   90.000000   90.215115
(PID.TID 0000.0001)  EXF_INTERP_READ: opening file: era5/ERA5_u10m_2008
(PID.TID 0000.0001)  EXF_INTERP_READ: opening file: era5/ERA5_v10m_2008
(PID.TID 0000.0001)  EXF_INTERP_UV: fileU="era5/ERA5_u10m_2008", rec=     2 , x-Per,P.Sym=    T    T
(PID.TID 0000.0001)  S.edge (j=-1,0,1) : proc= 2.2 1.1 0.0, yIn=  -90.215115  -90.000000  -89.784885
(PID.TID 0000.0001)  N.edge (j=+0,+1,+2) proc= 0.0 1.1 2.2, yIn=   89.784885   90.000000   90.215115
(PID.TID 0000.0001)  EXF_INTERP_READ: opening file: era5/ERA5_tmp2m_degC_2008
(PID.TID 0000.0001)  EXF_INTERP: file="era5/ERA5_tmp2m_degC_2008", rec=     1 , x-Per,P.Sym=    T    T
(PID.TID 0000.0001)  S.edge (j=-1,0,1) : proc= 2.2 1.1 0.0, yIn=  -90.215115  -90.000000  -89.784885
(PID.TID 0000.0001)  N.edge (j=+0,+1,+2) proc= 0.0 1.1 2.2, yIn=   89.784885   90.000000   90.215115
(PID.TID 0000.0001)  EXF_INTERP_READ: opening file: era5/ERA5_tmp2m_degC_2008
(PID.TID 0000.0001)  EXF_INTERP: file="era5/ERA5_tmp2m_degC_2008", rec=     2 , x-Per,P.Sym=    T    T
(PID.TID 0000.0001)  S.edge (j=-1,0,1) : proc= 2.2 1.1 0.0, yIn=  -90.215115  -90.000000  -89.784885
(PID.TID 0000.0001)  N.edge (j=+0,+1,+2) proc= 0.0 1.1 2.2, yIn=   89.784885   90.000000   90.215115
(PID.TID 0000.0001)  EXF_INTERP_READ: opening file: era5/ERA5_spfh2m_2008
(PID.TID 0000.0001)  EXF_INTERP: file="era5/ERA5_spfh2m_2008", rec=     1 , x-Per,P.Sym=    T    T
(PID.TID 0000.0001)  S.edge (j=-1,0,1) : proc= 2.2 1.1 0.0, yIn=  -90.215115  -90.000000  -89.784885
(PID.TID 0000.0001)  N.edge (j=+0,+1,+2) proc= 0.0 1.1 2.2, yIn=   89.784885   90.000000   90.215115
(PID.TID 0000.0001)  EXF_INTERP_READ: opening file: era5/ERA5_spfh2m_2008
(PID.TID 0000.0001)  EXF_INTERP: file="era5/ERA5_spfh2m_2008", rec=     2 , x-Per,P.Sym=    T    T
(PID.TID 0000.0001)  S.edge (j=-1,0,1) : proc= 2.2 1.1 0.0, yIn=  -90.215115  -90.000000  -89.784885
(PID.TID 0000.0001)  N.edge (j=+0,+1,+2) proc= 0.0 1.1 2.2, yIn=   89.784885   90.000000   90.215115
(PID.TID 0000.0001)  EXF_INTERP_READ: opening file: era5/ERA5_rain_2007
(PID.TID 0000.0001)  EXF_INTERP: file="era5/ERA5_rain_2007", rec=  8760 , x-Per,P.Sym=    T    T
(PID.TID 0000.0001)  S.edge (j=-1,0,1) : proc= 2.2 1.1 0.0, yIn=  -90.215115  -90.000000  -89.784885
(PID.TID 0000.0001)  N.edge (j=+0,+1,+2) proc= 0.0 1.1 2.2, yIn=   89.784885   90.000000   90.215115
(PID.TID 0000.0001)  EXF_INTERP_READ: opening file: era5/ERA5_rain_2008
(PID.TID 0000.0001)  EXF_INTERP: file="era5/ERA5_rain_2008", rec=     1 , x-Per,P.Sym=    T    T
(PID.TID 0000.0001)  S.edge (j=-1,0,1) : proc= 2.2 1.1 0.0, yIn=  -90.215115  -90.000000  -89.784885
(PID.TID 0000.0001)  N.edge (j=+0,+1,+2) proc= 0.0 1.1 2.2, yIn=   89.784885   90.000000   90.215115
(PID.TID 0000.0001)  EXF_INTERP_READ: opening file: era5/ERA5_dsw_2007
(PID.TID 0000.0001)  EXF_INTERP: file="era5/ERA5_dsw_2007", rec=  8760 , x-Per,P.Sym=    T    T
(PID.TID 0000.0001)  S.edge (j=-1,0,1) : proc= 2.2 1.1 0.0, yIn=  -90.215115  -90.000000  -89.784885
(PID.TID 0000.0001)  N.edge (j=+0,+1,+2) proc= 0.0 1.1 2.2, yIn=   89.784885   90.000000   90.215115
(PID.TID 0000.0001)  EXF_INTERP_READ: opening file: era5/ERA5_dsw_2008
(PID.TID 0000.0001)  EXF_INTERP: file="era5/ERA5_dsw_2008", rec=     1 , x-Per,P.Sym=    T    T
(PID.TID 0000.0001)  S.edge (j=-1,0,1) : proc= 2.2 1.1 0.0, yIn=  -90.215115  -90.000000  -89.784885
(PID.TID 0000.0001)  N.edge (j=+0,+1,+2) proc= 0.0 1.1 2.2, yIn=   89.784885   90.000000   90.215115
(PID.TID 0000.0001)  EXF_INTERP_READ: opening file: era5/ERA5_dlw_2007
(PID.TID 0000.0001)  EXF_INTERP: file="era5/ERA5_dlw_2007", rec=  8760 , x-Per,P.Sym=    T    T
(PID.TID 0000.0001)  S.edge (j=-1,0,1) : proc= 2.2 1.1 0.0, yIn=  -90.215115  -90.000000  -89.784885
(PID.TID 0000.0001)  N.edge (j=+0,+1,+2) proc= 0.0 1.1 2.2, yIn=   89.784885   90.000000   90.215115
(PID.TID 0000.0001)  EXF_INTERP_READ: opening file: era5/ERA5_dlw_2008
(PID.TID 0000.0001)  EXF_INTERP: file="era5/ERA5_dlw_2008", rec=     1 , x-Per,P.Sym=    T    T
(PID.TID 0000.0001)  S.edge (j=-1,0,1) : proc= 2.2 1.1 0.0, yIn=  -90.215115  -90.000000  -89.784885
(PID.TID 0000.0001)  N.edge (j=+0,+1,+2) proc= 0.0 1.1 2.2, yIn=   89.784885   90.000000   90.215115
(PID.TID 0000.0001)  EXF_INTERP_READ: opening file: era5/ERA5_pres_2008
(PID.TID 0000.0001)  EXF_INTERP: file="era5/ERA5_pres_2008", rec=     1 , x-Per,P.Sym=    T    T
(PID.TID 0000.0001)  S.edge (j=-1,0,1) : proc= 2.2 1.1 0.0, yIn=  -90.215115  -90.000000  -89.784885
(PID.TID 0000.0001)  N.edge (j=+0,+1,+2) proc= 0.0 1.1 2.2, yIn=   89.784885   90.000000   90.215115
(PID.TID 0000.0001)  EXF_INTERP_READ: opening file: era5/ERA5_pres_2008
(PID.TID 0000.0001)  EXF_INTERP: file="era5/ERA5_pres_2008", rec=     2 , x-Per,P.Sym=    T    T
(PID.TID 0000.0001)  S.edge (j=-1,0,1) : proc= 2.2 1.1 0.0, yIn=  -90.215115  -90.000000  -89.784885
(PID.TID 0000.0001)  N.edge (j=+0,+1,+2) proc= 0.0 1.1 2.2, yIn=   89.784885   90.000000   90.215115
(PID.TID 0000.0001)  EXF_INTERP_READ: opening file: tide_2008
(PID.TID 0000.0001)  EXF_INTERP: file="tide_2008", rec=     1 , x-Per,P.Sym=    T    T
(PID.TID 0000.0001)  S.edge (j=-1,0,1) : proc= 0.2 0.2 0.1, yIn=  -92.000000  -91.000000  -90.000000
(PID.TID 0000.0001)  N.edge (j=+0,+1,+2) proc= 0.1 0.2 0.2, yIn=   90.000000   91.000000   92.000000
(PID.TID 0000.0001)  EXF_INTERP_READ: opening file: tide_2008
(PID.TID 0000.0001)  EXF_INTERP: file="tide_2008", rec=     2 , x-Per,P.Sym=    T    T
(PID.TID 0000.0001)  S.edge (j=-1,0,1) : proc= 0.2 0.2 0.1, yIn=  -92.000000  -91.000000  -90.000000
(PID.TID 0000.0001)  N.edge (j=+0,+1,+2) proc= 0.1 0.2 0.2, yIn=   90.000000   91.000000   92.000000
(PID.TID 0000.0001)  EXF_INTERP_READ: opening file: runoff1p2472-360x180x12.bin
(PID.TID 0000.0001)  EXF_INTERP: file="runoff1p2472-360x180x12.bin", rec=    12 , x-Per,P.Sym=    T    T
(PID.TID 0000.0001)  S.edge (j=-1,0,1) : proc= 2.2 1.1 0.0, yIn=  -90.500000  -90.000000  -89.500000
(PID.TID 0000.0001)  N.edge (j=+0,+1,+2) proc= 0.0 1.1 2.2, yIn=   89.500000   90.000000   90.500000
(PID.TID 0000.0001)  EXF_INTERP_READ: opening file: runoff1p2472-360x180x12.bin
(PID.TID 0000.0001)  EXF_INTERP: file="runoff1p2472-360x180x12.bin", rec=     1 , x-Per,P.Sym=    T    T
(PID.TID 0000.0001)  S.edge (j=-1,0,1) : proc= 2.2 1.1 0.0, yIn=  -90.500000  -90.000000  -89.500000
(PID.TID 0000.0001)  N.edge (j=+0,+1,+2) proc= 0.0 1.1 2.2, yIn=   89.500000   90.000000   90.500000
(PID.TID 0000.0001) // =======================================================
(PID.TID 0000.0001) // Begin MONITOR EXF statistics
(PID.TID 0000.0001) // =======================================================
(PID.TID 0000.0001) %MON exf_tsnumber                 =                     0
(PID.TID 0000.0001) %MON exf_time_sec                 =   0.0000000000000E+00
(PID.TID 0000.0001) %MON exf_ustress_max              =   8.4425643696727E-01
(PID.TID 0000.0001) %MON exf_ustress_min              =  -4.3388225620106E-01
(PID.TID 0000.0001) %MON exf_ustress_mean             =   6.3244400400784E-02
(PID.TID 0000.0001) %MON exf_ustress_sd               =   1.5772656995174E-01
(PID.TID 0000.0001) %MON exf_ustress_del2             =   4.4515974964162E-07
(PID.TID 0000.0001) %MON exf_vstress_max              =   4.3288201359973E-01
(PID.TID 0000.0001) %MON exf_vstress_min              =  -5.7660870278438E-01
(PID.TID 0000.0001) %MON exf_vstress_mean             =   1.0765903587045E-02
(PID.TID 0000.0001) %MON exf_vstress_sd               =   1.0393286972532E-01
(PID.TID 0000.0001) %MON exf_vstress_del2             =   3.5452575835374E-07
(PID.TID 0000.0001) %MON exf_hflux_max                =   1.1426327298952E+03
(PID.TID 0000.0001) %MON exf_hflux_min                =  -2.5286207687554E+02
(PID.TID 0000.0001) %MON exf_hflux_mean               =   2.4640048459848E+02
(PID.TID 0000.0001) %MON exf_hflux_sd                 =   1.4494882583802E+02
(PID.TID 0000.0001) %MON exf_hflux_del2               =   6.4415571152730E-02
(PID.TID 0000.0001) %MON exf_sflux_max                =   2.6342196185133E-07
(PID.TID 0000.0001) %MON exf_sflux_min                =  -7.7122101460599E-07
(PID.TID 0000.0001) %MON exf_sflux_mean               =   1.0894842328490E-08
(PID.TID 0000.0001) %MON exf_sflux_sd                 =   9.8849487246137E-08
(PID.TID 0000.0001) %MON exf_sflux_del2               =   2.2365064273567E-11
(PID.TID 0000.0001) %MON exf_uwind_max                =   1.9606746784317E+01
(PID.TID 0000.0001) %MON exf_uwind_min                =  -1.5209099884720E+01
(PID.TID 0000.0001) %MON exf_uwind_mean               =   2.4660403052335E+00
(PID.TID 0000.0001) %MON exf_uwind_sd                 =   6.7030914982012E+00
(PID.TID 0000.0001) %MON exf_uwind_del2               =   1.5867906681655E-03
(PID.TID 0000.0001) %MON exf_vwind_max                =   1.4862500135514E+01
(PID.TID 0000.0001) %MON exf_vwind_min                =  -1.2856596770825E+01
(PID.TID 0000.0001) %MON exf_vwind_mean               =   8.4480849592730E-01
(PID.TID 0000.0001) %MON exf_vwind_sd                 =   5.2438507570531E+00
(PID.TID 0000.0001) %MON exf_vwind_del2               =   1.1881531983877E-03
(PID.TID 0000.0001) %MON exf_wspeed_max               =   2.0676576095759E+01
(PID.TID 0000.0001) %MON exf_wspeed_min               =   2.9026229934707E-03
(PID.TID 0000.0001) %MON exf_wspeed_mean              =   7.7680440694918E+00
(PID.TID 0000.0001) %MON exf_wspeed_sd                =   4.3453370308600E+00
(PID.TID 0000.0001) %MON exf_wspeed_del2              =   1.9820889817514E-03
(PID.TID 0000.0001) %MON exf_atemp_max                =   2.9817782771819E+02
(PID.TID 0000.0001) %MON exf_atemp_min                =   2.7455176814615E+02
(PID.TID 0000.0001) %MON exf_atemp_mean               =   2.9070214676457E+02
(PID.TID 0000.0001) %MON exf_atemp_sd                 =   3.9454297363030E+00
(PID.TID 0000.0001) %MON exf_atemp_del2               =   3.8874196207175E-03
(PID.TID 0000.0001) %MON exf_aqh_max                  =   1.6822470320966E-02
(PID.TID 0000.0001) %MON exf_aqh_min                  =   2.7400640917566E-03
(PID.TID 0000.0001) %MON exf_aqh_mean                 =   9.4287725023261E-03
(PID.TID 0000.0001) %MON exf_aqh_sd                   =   2.8741638324520E-03
(PID.TID 0000.0001) %MON exf_aqh_del2                 =   2.1288927552546E-06
(PID.TID 0000.0001) %MON exf_lwflux_max               =   1.5206773103703E+02
(PID.TID 0000.0001) %MON exf_lwflux_min               =   1.6673558521715E+01
(PID.TID 0000.0001) %MON exf_lwflux_mean              =   7.1263406557529E+01
(PID.TID 0000.0001) %MON exf_lwflux_sd                =   2.0933693193559E+01
(PID.TID 0000.0001) %MON exf_lwflux_del2              =   1.6276178261873E-02
(PID.TID 0000.0001) %MON exf_evap_max                 =   2.6993687811637E-07
(PID.TID 0000.0001) %MON exf_evap_min                 =  -9.0660328990173E-08
(PID.TID 0000.0001) %MON exf_evap_mean                =   5.9648195996947E-08
(PID.TID 0000.0001) %MON exf_evap_sd                  =   4.2510025900783E-08
(PID.TID 0000.0001) %MON exf_evap_del2                =   1.6455441711032E-11
(PID.TID 0000.0001) %MON exf_precip_max               =   9.4246552018275E-07
(PID.TID 0000.0001) %MON exf_precip_min               =   0.0000000000000E+00
(PID.TID 0000.0001) %MON exf_precip_mean              =   4.7164874096466E-08
(PID.TID 0000.0001) %MON exf_precip_sd                =   9.2958504222981E-08
(PID.TID 0000.0001) %MON exf_precip_del2              =   2.3893013010310E-11
(PID.TID 0000.0001) %MON exf_swflux_max               =   0.0000000000000E+00
(PID.TID 0000.0001) %MON exf_swflux_min               =   0.0000000000000E+00
(PID.TID 0000.0001) %MON exf_swflux_mean              =   0.0000000000000E+00
(PID.TID 0000.0001) %MON exf_swflux_sd                =   0.0000000000000E+00
(PID.TID 0000.0001) %MON exf_swflux_del2              =   0.0000000000000E+00
(PID.TID 0000.0001) %MON exf_swdown_max               =   0.0000000000000E+00
(PID.TID 0000.0001) %MON exf_swdown_min               =   0.0000000000000E+00
(PID.TID 0000.0001) %MON exf_swdown_mean              =   0.0000000000000E+00
(PID.TID 0000.0001) %MON exf_swdown_sd                =   0.0000000000000E+00
(PID.TID 0000.0001) %MON exf_swdown_del2              =   0.0000000000000E+00
(PID.TID 0000.0001) %MON exf_lwdown_max               =   3.9820521988866E+02
(PID.TID 0000.0001) %MON exf_lwdown_min               =   2.2735755022082E+02
(PID.TID 0000.0001) %MON exf_lwdown_mean              =   3.4365975791191E+02
(PID.TID 0000.0001) %MON exf_lwdown_sd                =   2.5519934066686E+01
(PID.TID 0000.0001) %MON exf_lwdown_del2              =   7.5208833129923E-02
(PID.TID 0000.0001) %MON exf_apressure_max            =   1.0278540583865E+05
(PID.TID 0000.0001) %MON exf_apressure_min            =   9.9972821381640E+04
(PID.TID 0000.0001) %MON exf_apressure_mean           =   1.0215907879916E+05
(PID.TID 0000.0001) %MON exf_apressure_sd             =   5.0098247038664E+02
(PID.TID 0000.0001) %MON exf_apressure_del2           =   2.2355565104995E+01
(PID.TID 0000.0001) %MON exf_runoff_max               =   4.4374798712073E-08
(PID.TID 0000.0001) %MON exf_runoff_min               =   0.0000000000000E+00
(PID.TID 0000.0001) %MON exf_runoff_mean              =   1.5884795719908E-09
(PID.TID 0000.0001) %MON exf_runoff_sd                =   5.3901959599983E-09
(PID.TID 0000.0001) %MON exf_runoff_del2              =   1.2741189756369E-12
(PID.TID 0000.0001) // =======================================================
(PID.TID 0000.0001) // End MONITOR EXF statistics
(PID.TID 0000.0001) // =======================================================
(PID.TID 0000.0001) SOLVE_FOR_PRESSURE: putPmEinXvector =    F
 cg2d: Sum(rhs),rhsMax =   5.26806012293016E+01  2.94674569779054E-01
(PID.TID 0000.0001)      cg2d_init_res =   1.55204836128877E+01
(PID.TID 0000.0001)      cg2d_iters(min,last) =      -1     326
(PID.TID 0000.0001)      cg2d_last_res =   6.95720016978879E-12
(PID.TID 0000.0001) // =======================================================
(PID.TID 0000.0001) // Begin MONITOR dynamic field statistics
(PID.TID 0000.0001) // =======================================================
(PID.TID 0000.0001) %MON time_tsnumber                =                     1
(PID.TID 0000.0001) %MON time_secondsf                =   2.4000000000000E+02
(PID.TID 0000.0001) %MON dynstat_eta_max              =   9.9431810820838E-01
(PID.TID 0000.0001) %MON dynstat_eta_min              =  -1.3586542697294E+00
(PID.TID 0000.0001) %MON dynstat_eta_mean             =  -1.7915145317381E-03
(PID.TID 0000.0001) %MON dynstat_eta_sd               =   6.5889199307692E-02
(PID.TID 0000.0001) %MON dynstat_eta_del2             =   7.8015250440540E-06
(PID.TID 0000.0001) %MON dynstat_uvel_max             =   1.2718058421484E+00
(PID.TID 0000.0001) %MON dynstat_uvel_min             =  -6.9993284621398E-01
(PID.TID 0000.0001) %MON dynstat_uvel_mean            =   3.8468884319178E-03
(PID.TID 0000.0001) %MON dynstat_uvel_sd              =   5.2155499171043E-02
(PID.TID 0000.0001) %MON dynstat_uvel_del2            =   4.4023865094301E-07
(PID.TID 0000.0001) %MON dynstat_vvel_max             =   1.8944082266793E+00
(PID.TID 0000.0001) %MON dynstat_vvel_min             =  -8.8816887419849E-01
(PID.TID 0000.0001) %MON dynstat_vvel_mean            =  -6.8586310194201E-04
(PID.TID 0000.0001) %MON dynstat_vvel_sd              =   4.8186562903359E-02
(PID.TID 0000.0001) %MON dynstat_vvel_del2            =   4.1705000862240E-07
(PID.TID 0000.0001) %MON dynstat_wvel_max             =   3.6299494203727E-02
(PID.TID 0000.0001) %MON dynstat_wvel_min             =  -3.3452208475849E-02
(PID.TID 0000.0001) %MON dynstat_wvel_mean            =  -3.0884693882598E-06
(PID.TID 0000.0001) %MON dynstat_wvel_sd              =   5.9799554037164E-04
(PID.TID 0000.0001) %MON dynstat_wvel_del2            =   9.0648840769301E-08
(PID.TID 0000.0001) %MON dynstat_theta_max            =   2.6141612842273E+01
(PID.TID 0000.0001) %MON dynstat_theta_min            =   1.4688636747894E+00
(PID.TID 0000.0001) %MON dynstat_theta_mean           =   5.5098718696817E+00
(PID.TID 0000.0001) %MON dynstat_theta_sd             =   4.7735065375112E+00
(PID.TID 0000.0001) %MON dynstat_theta_del2           =   4.0094842785388E-06
(PID.TID 0000.0001) %MON dynstat_salt_max             =   3.9184249640285E+01
(PID.TID 0000.0001) %MON dynstat_salt_min             =   3.3090165744502E+01
(PID.TID 0000.0001) %MON dynstat_salt_mean            =   3.5173372957552E+01
(PID.TID 0000.0001) %MON dynstat_salt_sd              =   3.7891595225900E-01
(PID.TID 0000.0001) %MON dynstat_salt_del2            =   4.9539394820407E-07
(PID.TID 0000.0001) %MON dynstat_sst_max              =   2.6140556846554E+01
(PID.TID 0000.0001) %MON dynstat_sst_min              =   4.0769278127087E+00
(PID.TID 0000.0001) %MON dynstat_sst_mean             =   1.9648097651681E+01
(PID.TID 0000.0001) %MON dynstat_sst_sd               =   3.6387891267801E+00
(PID.TID 0000.0001) %MON dynstat_sst_del2             =   1.9150954277443E-05
(PID.TID 0000.0001) %MON dynstat_sss_max              =   3.7335281193554E+01
(PID.TID 0000.0001) %MON dynstat_sss_min              =   3.3090165744502E+01
(PID.TID 0000.0001) %MON dynstat_sss_mean             =   3.5867991042818E+01
(PID.TID 0000.0001) %MON dynstat_sss_sd               =   4.8718475568807E-01
(PID.TID 0000.0001) %MON dynstat_sss_del2             =   5.0257359563409E-06
(PID.TID 0000.0001) %MON forcing_qnet_max             =   1.1600975946332E+03
(PID.TID 0000.0001) %MON forcing_qnet_min             =  -2.5825645303805E+02
(PID.TID 0000.0001) %MON forcing_qnet_mean            =   2.4794908928919E+02
(PID.TID 0000.0001) %MON forcing_qnet_sd              =   1.4819404726556E+02
(PID.TID 0000.0001) %MON forcing_qnet_del2            =   1.7133091436166E-03
(PID.TID 0000.0001) %MON forcing_qsw_max              =   0.0000000000000E+00
(PID.TID 0000.0001) %MON forcing_qsw_min              =   0.0000000000000E+00
(PID.TID 0000.0001) %MON forcing_qsw_mean             =   0.0000000000000E+00
(PID.TID 0000.0001) %MON forcing_qsw_sd               =   0.0000000000000E+00
(PID.TID 0000.0001) %MON forcing_qsw_del2             =   0.0000000000000E+00
(PID.TID 0000.0001) %MON forcing_empmr_max            =   2.6342196185133E-04
(PID.TID 0000.0001) %MON forcing_empmr_min            =  -7.7122101460599E-04
(PID.TID 0000.0001) %MON forcing_empmr_mean           =   1.0894842328490E-05
(PID.TID 0000.0001) %MON forcing_empmr_sd             =   9.8849487246137E-05
(PID.TID 0000.0001) %MON forcing_empmr_del2           =   2.4615065237330E-09
(PID.TID 0000.0001) %MON forcing_fu_max               =   8.4383770394575E-01
(PID.TID 0000.0001) %MON forcing_fu_min               =  -4.3380412111707E-01
(PID.TID 0000.0001) %MON forcing_fu_mean              =   6.3300579384205E-02
(PID.TID 0000.0001) %MON forcing_fu_sd                =   1.5778483199398E-01
(PID.TID 0000.0001) %MON forcing_fu_del2              =   4.1494870777306E-07
(PID.TID 0000.0001) %MON forcing_fv_max               =   4.3246030470736E-01
(PID.TID 0000.0001) %MON forcing_fv_min               =  -5.7777562355808E-01
(PID.TID 0000.0001) %MON forcing_fv_mean              =   1.0744983934582E-02
(PID.TID 0000.0001) %MON forcing_fv_sd                =   1.0406008770927E-01
(PID.TID 0000.0001) %MON forcing_fv_del2              =   3.3393945860233E-07
(PID.TID 0000.0001) %MON trAdv_CFL_u_max              =   7.7151459294856E-02
(PID.TID 0000.0001) %MON trAdv_CFL_v_max              =   1.1969517004292E-01
(PID.TID 0000.0001) %MON trAdv_CFL_w_max              =   6.5349632871953E-01
(PID.TID 0000.0001) %MON advcfl_uvel_max              =   7.7151458244369E-02
(PID.TID 0000.0001) %MON advcfl_vvel_max              =   1.1972999671543E-01
(PID.TID 0000.0001) %MON advcfl_wvel_max              =   6.5349632871953E-01
(PID.TID 0000.0001) %MON advcfl_W_hf_max              =   6.5349632871953E-01
(PID.TID 0000.0001) %MON pe_b_mean                    =  -3.7863621494588E-05
(PID.TID 0000.0001) %MON ke_max                       =   1.6048737834319E+00
(PID.TID 0000.0001) %MON ke_mean                      =   2.5099733279572E-03
(PID.TID 0000.0001) %MON ke_vol                       =   4.5818637279720E+16
(PID.TID 0000.0001) %MON vort_r_min                   =  -3.7659337780250E-04
(PID.TID 0000.0001) %MON vort_r_max                   =   5.4468099394056E-04
(PID.TID 0000.0001) %MON vort_a_mean                  =   8.2147630795905E-05
(PID.TID 0000.0001) %MON vort_a_sd                    =   1.0118743748554E-05
(PID.TID 0000.0001) %MON vort_p_mean                  =   8.4848852358474E-05
(PID.TID 0000.0001) %MON vort_p_sd                    =   3.4984654644503E-05
(PID.TID 0000.0001) %MON surfExpan_theta_mean         =   4.0460835777641E-05
(PID.TID 0000.0001) %MON surfExpan_salt_mean          =  -2.3865582869481E-04
(PID.TID 0000.0001) // =======================================================
(PID.TID 0000.0001) // End MONITOR dynamic field statistics
(PID.TID 0000.0001) // =======================================================
(PID.TID 0000.0001) // =======================================================
(PID.TID 0000.0001) // Begin OBCS MONITOR field statistics
(PID.TID 0000.0001) // =======================================================
(PID.TID 0000.0001) %MON obc_N_vVel_max               =   6.9574427194414E-01
(PID.TID 0000.0001) %MON obc_N_vVel_min               =  -3.2190138536929E-01
(PID.TID 0000.0001) %MON obc_N_vVel_mean              =   1.3214372707035E-02
(PID.TID 0000.0001) %MON obc_N_vVel_sd                =   6.4696568943744E-02
(PID.TID 0000.0001) %MON obc_N_vVel_Int               =   1.8916486142242E+08
(PID.TID 0000.0001) %MON obc_S_vVel_max               =   1.8944082266793E+00
(PID.TID 0000.0001) %MON obc_S_vVel_min               =  -2.6193006856167E-01
(PID.TID 0000.0001) %MON obc_S_vVel_mean              =   3.4426239329257E-03
(PID.TID 0000.0001) %MON obc_S_vVel_sd                =   3.5781323435683E-02
(PID.TID 0000.0001) %MON obc_S_vVel_Int               =   1.0480345500166E+08
(PID.TID 0000.0001) %MON obc_N_theta_max              =   1.6390772942977E+01
(PID.TID 0000.0001) %MON obc_N_theta_min              =   1.8895907760510E+00
(PID.TID 0000.0001) %MON obc_N_theta_mean             =   5.1589731177388E+00
(PID.TID 0000.0001) %MON obc_N_theta_sd               =   3.4827246474693E+00
(PID.TID 0000.0001) %MON obc_S_theta_max              =   2.5544838560027E+01
(PID.TID 0000.0001) %MON obc_S_theta_min              =   1.4632960371739E+00
(PID.TID 0000.0001) %MON obc_S_theta_mean             =   5.4595569751868E+00
(PID.TID 0000.0001) %MON obc_S_theta_sd               =   5.3559331643598E+00
(PID.TID 0000.0001) %MON obc_N_salt_max               =   3.5910867239595E+01
(PID.TID 0000.0001) %MON obc_N_salt_min               =   3.3295019572678E+01
(PID.TID 0000.0001) %MON obc_N_salt_mean              =   3.5114564020364E+01
(PID.TID 0000.0001) %MON obc_N_salt_sd                =   3.0984921004960E-01
(PID.TID 0000.0001) %MON obc_S_salt_max               =   3.7318339746237E+01
(PID.TID 0000.0001) %MON obc_S_salt_min               =   3.4844694366037E+01
(PID.TID 0000.0001) %MON obc_S_salt_mean              =   3.5168372866917E+01
(PID.TID 0000.0001) %MON obc_S_salt_sd                =   4.5717075682044E-01
(PID.TID 0000.0001) // =======================================================
(PID.TID 0000.0001) // End OBCS MONITOR field statistics
(PID.TID 0000.0001) // =======================================================
(PID.TID 0000.0001) // =======================================================
(PID.TID 0000.0001) // Begin MONITOR EXF statistics
(PID.TID 0000.0001) // =======================================================
(PID.TID 0000.0001) %MON exf_tsnumber                 =                     1
(PID.TID 0000.0001) %MON exf_time_sec                 =   2.4000000000000E+02
(PID.TID 0000.0001) %MON exf_ustress_max              =   8.3827942886462E-01
(PID.TID 0000.0001) %MON exf_ustress_min              =  -4.2951130258632E-01
(PID.TID 0000.0001) %MON exf_ustress_mean             =   6.3103172046200E-02
(PID.TID 0000.0001) %MON exf_ustress_sd               =   1.5694008851888E-01
(PID.TID 0000.0001) %MON exf_ustress_del2             =   4.3615647652485E-07
(PID.TID 0000.0001) %MON exf_vstress_max              =   4.1921739275648E-01
(PID.TID 0000.0001) %MON exf_vstress_min              =  -5.7314179640234E-01
(PID.TID 0000.0001) %MON exf_vstress_mean             =   1.0709358053457E-02
(PID.TID 0000.0001) %MON exf_vstress_sd               =   1.0322192686598E-01
(PID.TID 0000.0001) %MON exf_vstress_del2             =   3.2691143961398E-07
(PID.TID 0000.0001) %MON exf_hflux_max                =   1.1414720658540E+03
(PID.TID 0000.0001) %MON exf_hflux_min                =  -2.5658340092102E+02
(PID.TID 0000.0001) %MON exf_hflux_mean               =   2.4534454007365E+02
(PID.TID 0000.0001) %MON exf_hflux_sd                 =   1.4399241432868E+02
(PID.TID 0000.0001) %MON exf_hflux_del2               =   6.4094163164622E-02
(PID.TID 0000.0001) %MON exf_sflux_max                =   2.6217821739572E-07
(PID.TID 0000.0001) %MON exf_sflux_min                =  -8.9634421880253E-07
(PID.TID 0000.0001) %MON exf_sflux_mean               =   1.1723751809913E-08
(PID.TID 0000.0001) %MON exf_sflux_sd                 =   9.9263046157499E-08
(PID.TID 0000.0001) %MON exf_sflux_del2               =   2.2713104448229E-11
(PID.TID 0000.0001) %MON exf_uwind_max                =   1.9553615577530E+01
(PID.TID 0000.0001) %MON exf_uwind_min                =  -1.5156201441647E+01
(PID.TID 0000.0001) %MON exf_uwind_mean               =   2.4665495851358E+00
(PID.TID 0000.0001) %MON exf_uwind_sd                 =   6.6942562122537E+00
(PID.TID 0000.0001) %MON exf_uwind_del2               =   1.5855761287428E-03
(PID.TID 0000.0001) %MON exf_vwind_max                =   1.4720239734779E+01
(PID.TID 0000.0001) %MON exf_vwind_min                =  -1.2837167135424E+01
(PID.TID 0000.0001) %MON exf_vwind_mean               =   8.4647506163352E-01
(PID.TID 0000.0001) %MON exf_vwind_sd                 =   5.2291573253036E+00
(PID.TID 0000.0001) %MON exf_vwind_del2               =   1.1844629377916E-03
(PID.TID 0000.0001) %MON exf_wspeed_max               =   2.0604017541967E+01
(PID.TID 0000.0001) %MON exf_wspeed_min               =   1.3970785083274E-02
(PID.TID 0000.0001) %MON exf_wspeed_mean              =   7.7556148868189E+00
(PID.TID 0000.0001) %MON exf_wspeed_sd                =   4.3368164800146E+00
(PID.TID 0000.0001) %MON exf_wspeed_del2              =   1.9789192533264E-03
(PID.TID 0000.0001) %MON exf_atemp_max                =   2.9817563038952E+02
(PID.TID 0000.0001) %MON exf_atemp_min                =   2.7452616679930E+02
(PID.TID 0000.0001) %MON exf_atemp_mean               =   2.9069902555867E+02
(PID.TID 0000.0001) %MON exf_atemp_sd                 =   3.9447513444722E+00
(PID.TID 0000.0001) %MON exf_atemp_del2               =   3.8867434016797E-03
(PID.TID 0000.0001) %MON exf_aqh_max                  =   1.6815484070636E-02
(PID.TID 0000.0001) %MON exf_aqh_min                  =   2.7377693823923E-03
(PID.TID 0000.0001) %MON exf_aqh_mean                 =   9.4275843494796E-03
(PID.TID 0000.0001) %MON exf_aqh_sd                   =   2.8734847467604E-03
(PID.TID 0000.0001) %MON exf_aqh_del2                 =   2.1284603335259E-06
(PID.TID 0000.0001) %MON exf_lwflux_max               =   1.5159277173498E+02
(PID.TID 0000.0001) %MON exf_lwflux_min               =   1.6653089506514E+01
(PID.TID 0000.0001) %MON exf_lwflux_mean              =   7.0480757047930E+01
(PID.TID 0000.0001) %MON exf_lwflux_sd                =   2.0882628231187E+01
(PID.TID 0000.0001) %MON exf_lwflux_del2              =   1.6101596736859E-02
(PID.TID 0000.0001) %MON exf_evap_max                 =   2.6944465766207E-07
(PID.TID 0000.0001) %MON exf_evap_min                 =  -9.1098699742926E-08
(PID.TID 0000.0001) %MON exf_evap_mean                =   5.9553239559982E-08
(PID.TID 0000.0001) %MON exf_evap_sd                  =   4.2383478559691E-08
(PID.TID 0000.0001) %MON exf_evap_del2                =   1.6425201432856E-11
(PID.TID 0000.0001) %MON exf_precip_max               =   1.0681275895404E-06
(PID.TID 0000.0001) %MON exf_precip_min               =   0.0000000000000E+00
(PID.TID 0000.0001) %MON exf_precip_mean              =   4.6241008178078E-08
(PID.TID 0000.0001) %MON exf_precip_sd                =   9.5180220743482E-08
(PID.TID 0000.0001) %MON exf_precip_del2              =   2.4474140889587E-11
(PID.TID 0000.0001) %MON exf_swflux_max               =   0.0000000000000E+00
(PID.TID 0000.0001) %MON exf_swflux_min               =   0.0000000000000E+00
(PID.TID 0000.0001) %MON exf_swflux_mean              =   0.0000000000000E+00
(PID.TID 0000.0001) %MON exf_swflux_sd                =   0.0000000000000E+00
(PID.TID 0000.0001) %MON exf_swflux_del2              =   0.0000000000000E+00
(PID.TID 0000.0001) %MON exf_swdown_max               =   0.0000000000000E+00
(PID.TID 0000.0001) %MON exf_swdown_min               =   0.0000000000000E+00
(PID.TID 0000.0001) %MON exf_swdown_mean              =   0.0000000000000E+00
(PID.TID 0000.0001) %MON exf_swdown_sd                =   0.0000000000000E+00
(PID.TID 0000.0001) %MON exf_swdown_del2              =   0.0000000000000E+00
(PID.TID 0000.0001) %MON exf_lwdown_max               =   3.9865637476020E+02
(PID.TID 0000.0001) %MON exf_lwdown_min               =   2.2781413969617E+02
(PID.TID 0000.0001) %MON exf_lwdown_mean              =   3.4445381178148E+02
(PID.TID 0000.0001) %MON exf_lwdown_sd                =   2.5672715620219E+01
(PID.TID 0000.0001) %MON exf_lwdown_del2              =   7.5392252930860E-02
(PID.TID 0000.0001) %MON exf_apressure_max            =   1.0278691687306E+05
(PID.TID 0000.0001) %MON exf_apressure_min            =   9.9978539079073E+04
(PID.TID 0000.0001) %MON exf_apressure_mean           =   1.0215985610550E+05
(PID.TID 0000.0001) %MON exf_apressure_sd             =   5.0058207884564E+02
(PID.TID 0000.0001) %MON exf_apressure_del2           =   2.2355752403075E+01
(PID.TID 0000.0001) %MON exf_runoff_max               =   4.4374798712073E-08
(PID.TID 0000.0001) %MON exf_runoff_min               =   0.0000000000000E+00
(PID.TID 0000.0001) %MON exf_runoff_mean              =   1.5884795719908E-09
(PID.TID 0000.0001) %MON exf_runoff_sd                =   5.3901959599983E-09
(PID.TID 0000.0001) %MON exf_runoff_del2              =   1.2741189756369E-12
(PID.TID 0000.0001) // =======================================================
(PID.TID 0000.0001) // End MONITOR EXF statistics
(PID.TID 0000.0001) // =======================================================
 cg2d: Sum(rhs),rhsMax =   1.19494929877160E+02  4.70813076803765E-02
(PID.TID 0000.0001)      cg2d_init_res =   1.39151353252087E+01
(PID.TID 0000.0001)      cg2d_iters(min,last) =      -1     323
(PID.TID 0000.0001)      cg2d_last_res =   6.85378728408526E-12
(PID.TID 0000.0001) // =======================================================
(PID.TID 0000.0001) // Begin MONITOR dynamic field statistics
(PID.TID 0000.0001) // =======================================================
(PID.TID 0000.0001) %MON time_tsnumber                =                     2
(PID.TID 0000.0001) %MON time_secondsf                =   4.8000000000000E+02
(PID.TID 0000.0001) %MON dynstat_eta_max              =   8.7300239006260E-01
(PID.TID 0000.0001) %MON dynstat_eta_min              =  -1.5315208944157E+00
(PID.TID 0000.0001) %MON dynstat_eta_mean             =  -4.0636761606450E-03
(PID.TID 0000.0001) %MON dynstat_eta_sd               =   9.7733817817763E-02
(PID.TID 0000.0001) %MON dynstat_eta_del2             =   3.4503544625067E-06
(PID.TID 0000.0001) %MON dynstat_uvel_max             =   1.2822073076413E+00
(PID.TID 0000.0001) %MON dynstat_uvel_min             =  -7.0565350756076E-01
(PID.TID 0000.0001) %MON dynstat_uvel_mean            =   3.7652148751585E-03
(PID.TID 0000.0001) %MON dynstat_uvel_sd              =   5.2262999342365E-02
(PID.TID 0000.0001) %MON dynstat_uvel_del2            =   4.6222328545136E-07
(PID.TID 0000.0001) %MON dynstat_vvel_max             =   1.9227748132589E+00
(PID.TID 0000.0001) %MON dynstat_vvel_min             =  -8.9318066987403E-01
(PID.TID 0000.0001) %MON dynstat_vvel_mean            =  -1.1638104155692E-03
(PID.TID 0000.0001) %MON dynstat_vvel_sd              =   4.8158155387079E-02
(PID.TID 0000.0001) %MON dynstat_vvel_del2            =   4.2801022470329E-07
(PID.TID 0000.0001) %MON dynstat_wvel_max             =   3.7564983039319E-02
(PID.TID 0000.0001) %MON dynstat_wvel_min             =  -3.2825831135169E-02
(PID.TID 0000.0001) %MON dynstat_wvel_mean            =  -4.3165097998949E-06
(PID.TID 0000.0001) %MON dynstat_wvel_sd              =   5.8531714478591E-04
(PID.TID 0000.0001) %MON dynstat_wvel_del2            =   9.0300940477133E-08
(PID.TID 0000.0001) %MON dynstat_theta_max            =   2.6141375868141E+01
(PID.TID 0000.0001) %MON dynstat_theta_min            =   1.4688637571528E+00
(PID.TID 0000.0001) %MON dynstat_theta_mean           =   5.5098630032184E+00
(PID.TID 0000.0001) %MON dynstat_theta_sd             =   4.7734765009227E+00
(PID.TID 0000.0001) %MON dynstat_theta_del2           =   4.0037926697127E-06
(PID.TID 0000.0001) %MON dynstat_salt_max             =   3.9182777432761E+01
(PID.TID 0000.0001) %MON dynstat_salt_min             =   3.3090730117656E+01
(PID.TID 0000.0001) %MON dynstat_salt_mean            =   3.5173371411143E+01
(PID.TID 0000.0001) %MON dynstat_salt_sd              =   3.7891402706102E-01
(PID.TID 0000.0001) %MON dynstat_salt_del2            =   4.9557274952493E-07
(PID.TID 0000.0001) %MON dynstat_sst_max              =   2.6139521153478E+01
(PID.TID 0000.0001) %MON dynstat_sst_min              =   4.0626033519907E+00
(PID.TID 0000.0001) %MON dynstat_sst_mean             =   1.9646304848521E+01
(PID.TID 0000.0001) %MON dynstat_sst_sd               =   3.6387970359659E+00
(PID.TID 0000.0001) %MON dynstat_sst_del2             =   1.9096777188442E-05
(PID.TID 0000.0001) %MON dynstat_sss_max              =   3.7335396141046E+01
(PID.TID 0000.0001) %MON dynstat_sss_min              =   3.3090730117656E+01
(PID.TID 0000.0001) %MON dynstat_sss_mean             =   3.5868031241860E+01
(PID.TID 0000.0001) %MON dynstat_sss_sd               =   4.8718970039255E-01
(PID.TID 0000.0001) %MON dynstat_sss_del2             =   5.0100076175832E-06
(PID.TID 0000.0001) %MON forcing_qnet_max             =   1.1590196990694E+03
(PID.TID 0000.0001) %MON forcing_qnet_min             =  -2.6188087609018E+02
(PID.TID 0000.0001) %MON forcing_qnet_mean            =   2.4696745231363E+02
(PID.TID 0000.0001) %MON forcing_qnet_sd              =   1.4699272266712E+02
(PID.TID 0000.0001) %MON forcing_qnet_del2            =   1.7023517961453E-03
(PID.TID 0000.0001) %MON forcing_qsw_max              =   0.0000000000000E+00
(PID.TID 0000.0001) %MON forcing_qsw_min              =   0.0000000000000E+00
(PID.TID 0000.0001) %MON forcing_qsw_mean             =   0.0000000000000E+00
(PID.TID 0000.0001) %MON forcing_qsw_sd               =   0.0000000000000E+00
(PID.TID 0000.0001) %MON forcing_qsw_del2             =   0.0000000000000E+00
(PID.TID 0000.0001) %MON forcing_empmr_max            =   2.6217821739572E-04
(PID.TID 0000.0001) %MON forcing_empmr_min            =  -8.9634421880253E-04
(PID.TID 0000.0001) %MON forcing_empmr_mean           =   1.1723751809913E-05
(PID.TID 0000.0001) %MON forcing_empmr_sd             =   9.9263046157499E-05
(PID.TID 0000.0001) %MON forcing_empmr_del2           =   2.4830196956818E-09
(PID.TID 0000.0001) %MON forcing_fu_max               =   8.3753242027415E-01
(PID.TID 0000.0001) %MON forcing_fu_min               =  -4.2948400571623E-01
(PID.TID 0000.0001) %MON forcing_fu_mean              =   6.3159630629995E-02
(PID.TID 0000.0001) %MON forcing_fu_sd                =   1.5699859175554E-01
(PID.TID 0000.0001) %MON forcing_fu_del2              =   3.9852708600143E-07
(PID.TID 0000.0001) %MON forcing_fv_max               =   4.1893551571396E-01
(PID.TID 0000.0001) %MON forcing_fv_min               =  -5.7502273228175E-01
(PID.TID 0000.0001) %MON forcing_fv_mean              =   1.0688679276028E-02
(PID.TID 0000.0001) %MON forcing_fv_sd                =   1.0335022547721E-01
(PID.TID 0000.0001) %MON forcing_fv_del2              =   3.0679648082700E-07
(PID.TID 0000.0001) %MON trAdv_CFL_u_max              =   7.7792495541126E-02
(PID.TID 0000.0001) %MON trAdv_CFL_v_max              =   1.2148746768836E-01
(PID.TID 0000.0001) %MON trAdv_CFL_w_max              =   5.1783558474094E-01
(PID.TID 0000.0001) %MON advcfl_uvel_max              =   7.7792494481911E-02
(PID.TID 0000.0001) %MON advcfl_vvel_max              =   1.2152281585028E-01
(PID.TID 0000.0001) %MON advcfl_wvel_max              =   5.1937218884997E-01
(PID.TID 0000.0001) %MON advcfl_W_hf_max              =   5.2091793941202E-01
(PID.TID 0000.0001) %MON pe_b_mean                    =  -8.6383767298681E-05
(PID.TID 0000.0001) %MON ke_max                       =   1.6901615913264E+00
(PID.TID 0000.0001) %MON ke_mean                      =   2.5143139272563E-03
(PID.TID 0000.0001) %MON ke_vol                       =   4.5818637279720E+16
(PID.TID 0000.0001) %MON vort_r_min                   =  -4.3054250938780E-04
(PID.TID 0000.0001) %MON vort_r_max                   =   6.0071493291699E-04
(PID.TID 0000.0001) %MON vort_a_mean                  =   8.2147630071754E-05
(PID.TID 0000.0001) %MON vort_a_sd                    =   1.0121535868433E-05
(PID.TID 0000.0001) %MON vort_p_mean                  =   8.4848851610511E-05
(PID.TID 0000.0001) %MON vort_p_sd                    =   3.4982237243070E-05
(PID.TID 0000.0001) %MON surfExpan_theta_mean         =   2.3423378322174E-05
(PID.TID 0000.0001) %MON surfExpan_salt_mean          =  -3.1007241676913E-04
(PID.TID 0000.0001) // =======================================================
(PID.TID 0000.0001) // End MONITOR dynamic field statistics
(PID.TID 0000.0001) // =======================================================
(PID.TID 0000.0001) // =======================================================
(PID.TID 0000.0001) // Begin OBCS MONITOR field statistics
(PID.TID 0000.0001) // =======================================================
(PID.TID 0000.0001) %MON obc_N_vVel_max               =   6.9568554767849E-01
(PID.TID 0000.0001) %MON obc_N_vVel_min               =  -3.2199381926990E-01
(PID.TID 0000.0001) %MON obc_N_vVel_mean              =   1.3307490691962E-02
(PID.TID 0000.0001) %MON obc_N_vVel_sd                =   6.4696469699490E-02
(PID.TID 0000.0001) %MON obc_N_vVel_Int               =   1.9049785324164E+08
(PID.TID 0000.0001) %MON obc_S_vVel_max               =   1.9227748132589E+00
(PID.TID 0000.0001) %MON obc_S_vVel_min               =  -2.6207127723095E-01
(PID.TID 0000.0001) %MON obc_S_vVel_mean              =   2.7429399846448E-03
(PID.TID 0000.0001) %MON obc_S_vVel_sd                =   3.5810089513638E-02
(PID.TID 0000.0001) %MON obc_S_vVel_Int               =   8.3503046761390E+07
(PID.TID 0000.0001) %MON obc_N_theta_max              =   1.6390684840790E+01
(PID.TID 0000.0001) %MON obc_N_theta_min              =   1.8895908251163E+00
(PID.TID 0000.0001) %MON obc_N_theta_mean             =   5.1589657335888E+00
(PID.TID 0000.0001) %MON obc_N_theta_sd               =   3.4827153546990E+00
(PID.TID 0000.0001) %MON obc_S_theta_max              =   2.5544735811248E+01
(PID.TID 0000.0001) %MON obc_S_theta_min              =   1.4632964334612E+00
(PID.TID 0000.0001) %MON obc_S_theta_mean             =   5.4595561701622E+00
(PID.TID 0000.0001) %MON obc_S_theta_sd               =   5.3559292930331E+00
(PID.TID 0000.0001) %MON obc_N_salt_max               =   3.5910866831232E+01
(PID.TID 0000.0001) %MON obc_N_salt_min               =   3.3295025075312E+01
(PID.TID 0000.0001) %MON obc_N_salt_mean              =   3.5114563724377E+01
(PID.TID 0000.0001) %MON obc_N_salt_sd                =   3.0984909061059E-01
(PID.TID 0000.0001) %MON obc_S_salt_max               =   3.7318332861853E+01
(PID.TID 0000.0001) %MON obc_S_salt_min               =   3.4844694418258E+01
(PID.TID 0000.0001) %MON obc_S_salt_mean              =   3.5168372795001E+01
(PID.TID 0000.0001) %MON obc_S_salt_sd                =   4.5717040571680E-01
(PID.TID 0000.0001) // =======================================================
(PID.TID 0000.0001) // End OBCS MONITOR field statistics
(PID.TID 0000.0001) // =======================================================
(PID.TID 0000.0001) // =======================================================
(PID.TID 0000.0001) // Begin MONITOR EXF statistics
(PID.TID 0000.0001) // =======================================================
(PID.TID 0000.0001) %MON exf_tsnumber                 =                     2
(PID.TID 0000.0001) %MON exf_time_sec                 =   4.8000000000000E+02
(PID.TID 0000.0001) %MON exf_ustress_max              =   8.3767845708924E-01
(PID.TID 0000.0001) %MON exf_ustress_min              =  -4.2588804274096E-01
(PID.TID 0000.0001) %MON exf_ustress_mean             =   6.3015879406130E-02
(PID.TID 0000.0001) %MON exf_ustress_sd               =   1.5632346040523E-01
(PID.TID 0000.0001) %MON exf_ustress_del2             =   4.2179124482361E-07
(PID.TID 0000.0001) %MON exf_vstress_max              =   4.0928993985829E-01
(PID.TID 0000.0001) %MON exf_vstress_min              =  -5.7022702531718E-01
(PID.TID 0000.0001) %MON exf_vstress_mean             =   1.0672342362333E-02
(PID.TID 0000.0001) %MON exf_vstress_sd               =   1.0265989449448E-01
(PID.TID 0000.0001) %MON exf_vstress_del2             =   3.0641368179769E-07
(PID.TID 0000.0001) %MON exf_hflux_max                =   1.1410679476569E+03
(PID.TID 0000.0001) %MON exf_hflux_min                =  -2.6041839133287E+02
(PID.TID 0000.0001) %MON exf_hflux_mean               =   2.4435150668143E+02
(PID.TID 0000.0001) %MON exf_hflux_sd                 =   1.4316314234578E+02
(PID.TID 0000.0001) %MON exf_hflux_del2               =   6.3802688688752E-02
(PID.TID 0000.0001) %MON exf_sflux_max                =   2.6116475608773E-07
(PID.TID 0000.0001) %MON exf_sflux_min                =  -1.0214099060050E-06
(PID.TID 0000.0001) %MON exf_sflux_mean               =   1.2571850528387E-08
(PID.TID 0000.0001) %MON exf_sflux_sd                 =   1.0126696174516E-07
(PID.TID 0000.0001) %MON exf_sflux_del2               =   2.3437253251592E-11
(PID.TID 0000.0001) %MON exf_uwind_max                =   1.9559449225042E+01
(PID.TID 0000.0001) %MON exf_uwind_min                =  -1.5111818623268E+01
(PID.TID 0000.0001) %MON exf_uwind_mean               =   2.4675557463538E+00
(PID.TID 0000.0001) %MON exf_uwind_sd                 =   6.6870781147823E+00
(PID.TID 0000.0001) %MON exf_uwind_del2               =   1.5847931465245E-03
(PID.TID 0000.0001) %MON exf_vwind_max                =   1.4603616925632E+01
(PID.TID 0000.0001) %MON exf_vwind_min                =  -1.2819773613634E+01
(PID.TID 0000.0001) %MON exf_vwind_mean               =   8.4817956073946E-01
(PID.TID 0000.0001) %MON exf_vwind_sd                 =   5.2165361843800E+00
(PID.TID 0000.0001) %MON exf_vwind_del2               =   1.1812565021197E-03
(PID.TID 0000.0001) %MON exf_wspeed_max               =   2.0544619398481E+01
(PID.TID 0000.0001) %MON exf_wspeed_min               =   1.4212529179287E-02
(PID.TID 0000.0001) %MON exf_wspeed_mean              =   7.7450629120453E+00
(PID.TID 0000.0001) %MON exf_wspeed_sd                =   4.3303006700720E+00
(PID.TID 0000.0001) %MON exf_wspeed_del2              =   1.9763870109418E-03
(PID.TID 0000.0001) %MON exf_atemp_max                =   2.9817343306084E+02
(PID.TID 0000.0001) %MON exf_atemp_min                =   2.7450056545246E+02
(PID.TID 0000.0001) %MON exf_atemp_mean               =   2.9069590435276E+02
(PID.TID 0000.0001) %MON exf_atemp_sd                 =   3.9442153070108E+00
(PID.TID 0000.0001) %MON exf_atemp_del2               =   3.8860737442326E-03
(PID.TID 0000.0001) %MON exf_aqh_max                  =   1.6808497820306E-02
(PID.TID 0000.0001) %MON exf_aqh_min                  =   2.7354746730280E-03
(PID.TID 0000.0001) %MON exf_aqh_mean                 =   9.4263961966331E-03
(PID.TID 0000.0001) %MON exf_aqh_sd                   =   2.8729782876331E-03
(PID.TID 0000.0001) %MON exf_aqh_del2                 =   2.1280399903957E-06
(PID.TID 0000.0001) %MON exf_lwflux_max               =   1.5112482512759E+02
(PID.TID 0000.0001) %MON exf_lwflux_min               =   1.5989246110398E+01
(PID.TID 0000.0001) %MON exf_lwflux_mean              =   6.9700621120172E+01
(PID.TID 0000.0001) %MON exf_lwflux_sd                =   2.1124382225494E+01
(PID.TID 0000.0001) %MON exf_lwflux_del2              =   1.5947350177560E-02
(PID.TID 0000.0001) %MON exf_evap_max                 =   2.7064045772401E-07
(PID.TID 0000.0001) %MON exf_evap_min                 =  -9.1568007821277E-08
(PID.TID 0000.0001) %MON exf_evap_mean                =   5.9477472360068E-08
(PID.TID 0000.0001) %MON exf_evap_sd                  =   4.2284518567975E-08
(PID.TID 0000.0001) %MON exf_evap_del2                =   1.6402752911047E-11
(PID.TID 0000.0001) %MON exf_precip_max               =   1.1937896588981E-06
(PID.TID 0000.0001) %MON exf_precip_min               =   0.0000000000000E+00
(PID.TID 0000.0001) %MON exf_precip_mean              =   4.5317142259690E-08
(PID.TID 0000.0001) %MON exf_precip_sd                =   9.8966659187063E-08
(PID.TID 0000.0001) %MON exf_precip_del2              =   2.5389886759034E-11
(PID.TID 0000.0001) %MON exf_swflux_max               =   0.0000000000000E+00
(PID.TID 0000.0001) %MON exf_swflux_min               =   0.0000000000000E+00
(PID.TID 0000.0001) %MON exf_swflux_mean              =   0.0000000000000E+00
(PID.TID 0000.0001) %MON exf_swflux_sd                =   0.0000000000000E+00
(PID.TID 0000.0001) %MON exf_swflux_del2              =   0.0000000000000E+00
(PID.TID 0000.0001) %MON exf_swdown_max               =   0.0000000000000E+00
(PID.TID 0000.0001) %MON exf_swdown_min               =   0.0000000000000E+00
(PID.TID 0000.0001) %MON exf_swdown_mean              =   0.0000000000000E+00
(PID.TID 0000.0001) %MON exf_swdown_sd                =   0.0000000000000E+00
(PID.TID 0000.0001) %MON exf_swdown_del2              =   0.0000000000000E+00
(PID.TID 0000.0001) %MON exf_lwdown_max               =   3.9916211867404E+02
(PID.TID 0000.0001) %MON exf_lwdown_min               =   2.2827072917151E+02
(PID.TID 0000.0001) %MON exf_lwdown_mean              =   3.4524786565106E+02
(PID.TID 0000.0001) %MON exf_lwdown_sd                =   2.6075853681968E+01
(PID.TID 0000.0001) %MON exf_lwdown_del2              =   7.5580071600177E-02
(PID.TID 0000.0001) %MON exf_apressure_max            =   1.0278842790746E+05
(PID.TID 0000.0001) %MON exf_apressure_min            =   9.9983892236314E+04
(PID.TID 0000.0001) %MON exf_apressure_mean           =   1.0216063341184E+05
(PID.TID 0000.0001) %MON exf_apressure_sd             =   5.0022107696962E+02
(PID.TID 0000.0001) %MON exf_apressure_del2           =   2.2355939744295E+01
(PID.TID 0000.0001) %MON exf_runoff_max               =   4.4374798712073E-08
(PID.TID 0000.0001) %MON exf_runoff_min               =   0.0000000000000E+00
(PID.TID 0000.0001) %MON exf_runoff_mean              =   1.5884795719908E-09
(PID.TID 0000.0001) %MON exf_runoff_sd                =   5.3901959599983E-09
(PID.TID 0000.0001) %MON exf_runoff_del2              =   1.2741189756369E-12
(PID.TID 0000.0001) // =======================================================
(PID.TID 0000.0001) // End MONITOR EXF statistics
(PID.TID 0000.0001) // =======================================================
 cg2d: Sum(rhs),rhsMax =   2.00361346372482E+02  3.88143259248005E-02
(PID.TID 0000.0001)      cg2d_init_res =   3.21754660145904E+00
(PID.TID 0000.0001)      cg2d_iters(min,last) =      -1     320
(PID.TID 0000.0001)      cg2d_last_res =   6.61571221363702E-12
(PID.TID 0000.0001) // =======================================================
(PID.TID 0000.0001) // Begin MONITOR dynamic field statistics
(PID.TID 0000.0001) // =======================================================
(PID.TID 0000.0001) %MON time_tsnumber                =                     3
(PID.TID 0000.0001) %MON time_secondsf                =   7.2000000000000E+02
(PID.TID 0000.0001) %MON dynstat_eta_max              =   9.5747498717475E-01
(PID.TID 0000.0001) %MON dynstat_eta_min              =  -1.5344870578479E+00
(PID.TID 0000.0001) %MON dynstat_eta_mean             =  -6.8137085615732E-03
(PID.TID 0000.0001) %MON dynstat_eta_sd               =   1.2653897875268E-01
(PID.TID 0000.0001) %MON dynstat_eta_del2             =   2.9317831030171E-06
(PID.TID 0000.0001) %MON dynstat_uvel_max             =   1.2896869593572E+00
(PID.TID 0000.0001) %MON dynstat_uvel_min             =  -8.9373802382272E-01
(PID.TID 0000.0001) %MON dynstat_uvel_mean            =   3.6486819564000E-03
(PID.TID 0000.0001) %MON dynstat_uvel_sd              =   5.2337503522831E-02
(PID.TID 0000.0001) %MON dynstat_uvel_del2            =   4.6330058716554E-07
(PID.TID 0000.0001) %MON dynstat_vvel_max             =   1.9873820750718E+00
(PID.TID 0000.0001) %MON dynstat_vvel_min             =  -8.9822808902818E-01
(PID.TID 0000.0001) %MON dynstat_vvel_mean            =  -1.6090443794094E-03
(PID.TID 0000.0001) %MON dynstat_vvel_sd              =   4.8200965843910E-02
(PID.TID 0000.0001) %MON dynstat_vvel_del2            =   4.2469003707787E-07
(PID.TID 0000.0001) %MON dynstat_wvel_max             =   3.7202229214007E-02
(PID.TID 0000.0001) %MON dynstat_wvel_min             =  -3.2622600892587E-02
(PID.TID 0000.0001) %MON dynstat_wvel_mean            =  -5.5391214022801E-06
(PID.TID 0000.0001) %MON dynstat_wvel_sd              =   5.8964561388709E-04
(PID.TID 0000.0001) %MON dynstat_wvel_del2            =   8.9135100341885E-08
(PID.TID 0000.0001) %MON dynstat_theta_max            =   2.6141063262154E+01
(PID.TID 0000.0001) %MON dynstat_theta_min            =   1.4688638492134E+00
(PID.TID 0000.0001) %MON dynstat_theta_mean           =   5.5098555809261E+00
(PID.TID 0000.0001) %MON dynstat_theta_sd             =   4.7734479807914E+00
(PID.TID 0000.0001) %MON dynstat_theta_del2           =   4.0023706897114E-06
(PID.TID 0000.0001) %MON dynstat_salt_max             =   3.9180974993300E+01
(PID.TID 0000.0001) %MON dynstat_salt_min             =   3.3091332686628E+01
(PID.TID 0000.0001) %MON dynstat_salt_mean            =   3.5173370049276E+01
(PID.TID 0000.0001) %MON dynstat_salt_sd              =   3.7891249012681E-01
(PID.TID 0000.0001) %MON dynstat_salt_del2            =   4.9706696933661E-07
(PID.TID 0000.0001) %MON dynstat_sst_max              =   2.6138628089538E+01
(PID.TID 0000.0001) %MON dynstat_sst_min              =   4.0484304409473E+00
(PID.TID 0000.0001) %MON dynstat_sst_mean             =   1.9644816780530E+01
(PID.TID 0000.0001) %MON dynstat_sst_sd               =   3.6388228739512E+00
(PID.TID 0000.0001) %MON dynstat_sst_del2             =   1.9071768346319E-05
(PID.TID 0000.0001) %MON dynstat_sss_max              =   3.7335489474736E+01
(PID.TID 0000.0001) %MON dynstat_sss_min              =   3.3091332686628E+01
(PID.TID 0000.0001) %MON dynstat_sss_mean             =   3.5868071003213E+01
(PID.TID 0000.0001) %MON dynstat_sss_sd               =   4.8719138152879E-01
(PID.TID 0000.0001) %MON dynstat_sss_del2             =   4.9960783022469E-06
(PID.TID 0000.0001) %MON forcing_qnet_max             =   1.1587144316999E+03
(PID.TID 0000.0001) %MON forcing_qnet_min             =  -2.6562031569274E+02
(PID.TID 0000.0001) %MON forcing_qnet_mean            =   2.4605064829603E+02
(PID.TID 0000.0001) %MON forcing_qnet_sd              =   1.4593276128912E+02
(PID.TID 0000.0001) %MON forcing_qnet_del2            =   1.6903759042255E-03
(PID.TID 0000.0001) %MON forcing_qsw_max              =   0.0000000000000E+00
(PID.TID 0000.0001) %MON forcing_qsw_min              =   0.0000000000000E+00
(PID.TID 0000.0001) %MON forcing_qsw_mean             =   0.0000000000000E+00
(PID.TID 0000.0001) %MON forcing_qsw_sd               =   0.0000000000000E+00
(PID.TID 0000.0001) %MON forcing_qsw_del2             =   0.0000000000000E+00
(PID.TID 0000.0001) %MON forcing_empmr_max            =   2.6116475608773E-04
(PID.TID 0000.0001) %MON forcing_empmr_min            =  -1.0214099060050E-03
(PID.TID 0000.0001) %MON forcing_empmr_mean           =   1.2571850528387E-05
(PID.TID 0000.0001) %MON forcing_empmr_sd             =   1.0126696174516E-04
(PID.TID 0000.0001) %MON forcing_empmr_del2           =   2.5459321396336E-09
(PID.TID 0000.0001) %MON forcing_fu_max               =   8.3622013914258E-01
(PID.TID 0000.0001) %MON forcing_fu_min               =  -4.2581576909322E-01
(PID.TID 0000.0001) %MON forcing_fu_mean              =   6.3072658867347E-02
(PID.TID 0000.0001) %MON forcing_fu_sd                =   1.5638220706459E-01
(PID.TID 0000.0001) %MON forcing_fu_del2              =   3.8123436117420E-07
(PID.TID 0000.0001) %MON forcing_fv_max               =   4.0884293709844E-01
(PID.TID 0000.0001) %MON forcing_fv_min               =  -5.7257051290985E-01
(PID.TID 0000.0001) %MON forcing_fv_mean              =   1.0651911664340E-02
(PID.TID 0000.0001) %MON forcing_fv_sd                =   1.0278903140040E-01
(PID.TID 0000.0001) %MON forcing_fv_del2              =   2.8585284205881E-07
(PID.TID 0000.0001) %MON trAdv_CFL_u_max              =   7.8246291716898E-02
(PID.TID 0000.0001) %MON trAdv_CFL_v_max              =   1.2556957474416E-01
(PID.TID 0000.0001) %MON trAdv_CFL_w_max              =   5.0132448071812E-01
(PID.TID 0000.0001) %MON advcfl_uvel_max              =   7.8246290651504E-02
(PID.TID 0000.0001) %MON advcfl_vvel_max              =   1.2560611064161E-01
(PID.TID 0000.0001) %MON advcfl_wvel_max              =   5.0281209045319E-01
(PID.TID 0000.0001) %MON advcfl_W_hf_max              =   5.0430855500811E-01
(PID.TID 0000.0001) %MON pe_b_mean                    =  -1.4503518221984E-04
(PID.TID 0000.0001) %MON ke_max                       =   1.7552873376253E+00
(PID.TID 0000.0001) %MON ke_mean                      =   2.5204173728863E-03
(PID.TID 0000.0001) %MON ke_vol                       =   4.5818637279720E+16
(PID.TID 0000.0001) %MON vort_r_min                   =  -4.6831342625968E-04
(PID.TID 0000.0001) %MON vort_r_max                   =   6.0348972668951E-04
(PID.TID 0000.0001) %MON vort_a_mean                  =   8.2147629334876E-05
(PID.TID 0000.0001) %MON vort_a_sd                    =   1.0122352558096E-05
(PID.TID 0000.0001) %MON vort_p_mean                  =   8.4848850849403E-05
(PID.TID 0000.0001) %MON vort_p_sd                    =   3.4978362317662E-05
(PID.TID 0000.0001) %MON surfExpan_theta_mean         =  -1.1744106398008E-05
(PID.TID 0000.0001) %MON surfExpan_salt_mean          =  -3.8327687609859E-04
(PID.TID 0000.0001) // =======================================================
(PID.TID 0000.0001) // End MONITOR dynamic field statistics
(PID.TID 0000.0001) // =======================================================
(PID.TID 0000.0001) // =======================================================
(PID.TID 0000.0001) // Begin OBCS MONITOR field statistics
(PID.TID 0000.0001) // =======================================================
(PID.TID 0000.0001) %MON obc_N_vVel_max               =   6.9561473952318E-01
(PID.TID 0000.0001) %MON obc_N_vVel_min               =  -3.2210984061472E-01
(PID.TID 0000.0001) %MON obc_N_vVel_mean              =   1.3386422536623E-02
(PID.TID 0000.0001) %MON obc_N_vVel_sd                =   6.4693635573125E-02
(PID.TID 0000.0001) %MON obc_N_vVel_Int               =   1.9162776926476E+08
(PID.TID 0000.0001) %MON obc_S_vVel_max               =   1.9873820750718E+00
(PID.TID 0000.0001) %MON obc_S_vVel_min               =  -2.6220596923867E-01
(PID.TID 0000.0001) %MON obc_S_vVel_mean              =   2.0408797773561E-03
(PID.TID 0000.0001) %MON obc_S_vVel_sd                =   3.5842793074871E-02
(PID.TID 0000.0001) %MON obc_S_vVel_Int               =   6.2130298306548E+07
(PID.TID 0000.0001) %MON obc_N_theta_max              =   1.6390596738603E+01
(PID.TID 0000.0001) %MON obc_N_theta_min              =   1.8895908741817E+00
(PID.TID 0000.0001) %MON obc_N_theta_mean             =   5.1589583494387E+00
(PID.TID 0000.0001) %MON obc_N_theta_sd               =   3.4827060621667E+00
(PID.TID 0000.0001) %MON obc_S_theta_max              =   2.5544633062468E+01
(PID.TID 0000.0001) %MON obc_S_theta_min              =   1.4632968297484E+00
(PID.TID 0000.0001) %MON obc_S_theta_mean             =   5.4595553651376E+00
(PID.TID 0000.0001) %MON obc_S_theta_sd               =   5.3559254217424E+00
(PID.TID 0000.0001) %MON obc_N_salt_max               =   3.5910866422869E+01
(PID.TID 0000.0001) %MON obc_N_salt_min               =   3.3295030577945E+01
(PID.TID 0000.0001) %MON obc_N_salt_mean              =   3.5114563428390E+01
(PID.TID 0000.0001) %MON obc_N_salt_sd                =   3.0984897118963E-01
(PID.TID 0000.0001) %MON obc_S_salt_max               =   3.7318325977469E+01
(PID.TID 0000.0001) %MON obc_S_salt_min               =   3.4844694470478E+01
(PID.TID 0000.0001) %MON obc_S_salt_mean              =   3.5168372723084E+01
(PID.TID 0000.0001) %MON obc_S_salt_sd                =   4.5717005460235E-01
(PID.TID 0000.0001) // =======================================================
(PID.TID 0000.0001) // End OBCS MONITOR field statistics
(PID.TID 0000.0001) // =======================================================
(PID.TID 0000.0001) // =======================================================
(PID.TID 0000.0001) // Begin MONITOR EXF statistics
(PID.TID 0000.0001) // =======================================================
(PID.TID 0000.0001) %MON exf_tsnumber                 =                     3
(PID.TID 0000.0001) %MON exf_time_sec                 =   7.2000000000000E+02
(PID.TID 0000.0001) %MON exf_ustress_max              =   8.3606698032798E-01
(PID.TID 0000.0001) %MON exf_ustress_min              =  -4.2259184177039E-01
(PID.TID 0000.0001) %MON exf_ustress_mean             =   6.2970116507436E-02
(PID.TID 0000.0001) %MON exf_ustress_sd               =   1.5583991379267E-01
(PID.TID 0000.0001) %MON exf_ustress_del2             =   4.0624715017856E-07
(PID.TID 0000.0001) %MON exf_vstress_max              =   4.0174967944855E-01
(PID.TID 0000.0001) %MON exf_vstress_min              =  -5.6774815622338E-01
(PID.TID 0000.0001) %MON exf_vstress_mean             =   1.0653214380121E-02
(PID.TID 0000.0001) %MON exf_vstress_sd               =   1.0222107392475E-01
(PID.TID 0000.0001) %MON exf_vstress_del2             =   2.8955303175704E-07
(PID.TID 0000.0001) %MON exf_hflux_max                =   1.1411913027249E+03
(PID.TID 0000.0001) %MON exf_hflux_min                =  -2.6437245973731E+02
(PID.TID 0000.0001) %MON exf_hflux_mean               =   2.4340608831224E+02
(PID.TID 0000.0001) %MON exf_hflux_sd                 =   1.4243603572370E+02
(PID.TID 0000.0001) %MON exf_hflux_del2               =   6.3532357157780E-02
(PID.TID 0000.0001) %MON exf_sflux_max                =   2.6023323146424E-07
(PID.TID 0000.0001) %MON exf_sflux_min                =  -1.1464378386942E-06
(PID.TID 0000.0001) %MON exf_sflux_mean               =   1.3434409756643E-08
(PID.TID 0000.0001) %MON exf_sflux_sd                 =   1.0476659800893E-07
(PID.TID 0000.0001) %MON exf_sflux_del2               =   2.4503305103245E-11
(PID.TID 0000.0001) %MON exf_uwind_max                =   1.9557462942840E+01
(PID.TID 0000.0001) %MON exf_uwind_min                =  -1.5072247166287E+01
(PID.TID 0000.0001) %MON exf_uwind_mean               =   2.4688610123015E+00
(PID.TID 0000.0001) %MON exf_uwind_sd                 =   6.6812341340321E+00
(PID.TID 0000.0001) %MON exf_uwind_del2               =   1.5843281057537E-03
(PID.TID 0000.0001) %MON exf_vwind_max                =   1.4512032050682E+01
(PID.TID 0000.0001) %MON exf_vwind_min                =  -1.2804783515731E+01
(PID.TID 0000.0001) %MON exf_vwind_mean               =   8.4990513946350E-01
(PID.TID 0000.0001) %MON exf_vwind_sd                 =   5.2057873689949E+00
(PID.TID 0000.0001) %MON exf_vwind_del2               =   1.1784795692162E-03
(PID.TID 0000.0001) %MON exf_wspeed_max               =   2.0490372490710E+01
(PID.TID 0000.0001) %MON exf_wspeed_min               =   3.7852039215352E-03
(PID.TID 0000.0001) %MON exf_wspeed_mean              =   7.7361213092207E+00
(PID.TID 0000.0001) %MON exf_wspeed_sd                =   4.3254077516589E+00
(PID.TID 0000.0001) %MON exf_wspeed_del2              =   1.9743676250640E-03
(PID.TID 0000.0001) %MON exf_atemp_max                =   2.9817123573216E+02
(PID.TID 0000.0001) %MON exf_atemp_min                =   2.7447496410562E+02
(PID.TID 0000.0001) %MON exf_atemp_mean               =   2.9069278314686E+02
(PID.TID 0000.0001) %MON exf_atemp_sd                 =   3.9438216819645E+00
(PID.TID 0000.0001) %MON exf_atemp_del2               =   3.8854106517690E-03
(PID.TID 0000.0001) %MON exf_aqh_max                  =   1.6801511569976E-02
(PID.TID 0000.0001) %MON exf_aqh_min                  =   2.7331799636637E-03
(PID.TID 0000.0001) %MON exf_aqh_mean                 =   9.4252080437865E-03
(PID.TID 0000.0001) %MON exf_aqh_sd                   =   2.8726445463744E-03
(PID.TID 0000.0001) %MON exf_aqh_del2                 =   2.1276317330230E-06
(PID.TID 0000.0001) %MON exf_lwflux_max               =   1.5079978769269E+02
(PID.TID 0000.0001) %MON exf_lwflux_min               =   1.3832291145637E+01
(PID.TID 0000.0001) %MON exf_lwflux_mean              =   6.8922172679539E+01
(PID.TID 0000.0001) %MON exf_lwflux_sd                =   2.1648885484693E+01
(PID.TID 0000.0001) %MON exf_lwflux_del2              =   1.5813815818249E-02
(PID.TID 0000.0001) %MON exf_evap_max                 =   2.7197480568906E-07
(PID.TID 0000.0001) %MON exf_evap_min                 =  -9.2069774259873E-08
(PID.TID 0000.0001) %MON exf_evap_mean                =   5.9416165669936E-08
(PID.TID 0000.0001) %MON exf_evap_sd                  =   4.2206021821655E-08
(PID.TID 0000.0001) %MON exf_evap_del2                =   1.6385971755873E-11
(PID.TID 0000.0001) %MON exf_precip_max               =   1.3194517282558E-06
(PID.TID 0000.0001) %MON exf_precip_min               =   0.0000000000000E+00
(PID.TID 0000.0001) %MON exf_precip_mean              =   4.4393276341302E-08
(PID.TID 0000.0001) %MON exf_precip_sd                =   1.0414729538968E-07
(PID.TID 0000.0001) %MON exf_precip_del2              =   2.6605721241313E-11
(PID.TID 0000.0001) %MON exf_swflux_max               =   0.0000000000000E+00
(PID.TID 0000.0001) %MON exf_swflux_min               =   0.0000000000000E+00
(PID.TID 0000.0001) %MON exf_swflux_mean              =   0.0000000000000E+00
(PID.TID 0000.0001) %MON exf_swflux_sd                =   0.0000000000000E+00
(PID.TID 0000.0001) %MON exf_swflux_del2              =   0.0000000000000E+00
(PID.TID 0000.0001) %MON exf_swdown_max               =   0.0000000000000E+00
(PID.TID 0000.0001) %MON exf_swdown_min               =   0.0000000000000E+00
(PID.TID 0000.0001) %MON exf_swdown_mean              =   0.0000000000000E+00
(PID.TID 0000.0001) %MON exf_swdown_sd                =   0.0000000000000E+00
(PID.TID 0000.0001) %MON exf_swdown_del2              =   0.0000000000000E+00
(PID.TID 0000.0001) %MON exf_lwdown_max               =   3.9966786258788E+02
(PID.TID 0000.0001) %MON exf_lwdown_min               =   2.2872731864686E+02
(PID.TID 0000.0001) %MON exf_lwdown_mean              =   3.4604191952063E+02
(PID.TID 0000.0001) %MON exf_lwdown_sd                =   2.6718018050530E+01
(PID.TID 0000.0001) %MON exf_lwdown_del2              =   7.5772256427114E-02
(PID.TID 0000.0001) %MON exf_apressure_max            =   1.0278993894187E+05
(PID.TID 0000.0001) %MON exf_apressure_min            =   9.9988779519372E+04
(PID.TID 0000.0001) %MON exf_apressure_mean           =   1.0216141071818E+05
(PID.TID 0000.0001) %MON exf_apressure_sd             =   4.9989955009419E+02
(PID.TID 0000.0001) %MON exf_apressure_del2           =   2.2356127128656E+01
(PID.TID 0000.0001) %MON exf_runoff_max               =   4.4374798712073E-08
(PID.TID 0000.0001) %MON exf_runoff_min               =   0.0000000000000E+00
(PID.TID 0000.0001) %MON exf_runoff_mean              =   1.5884795719908E-09
(PID.TID 0000.0001) %MON exf_runoff_sd                =   5.3901959599983E-09
(PID.TID 0000.0001) %MON exf_runoff_del2              =   1.2741189756369E-12
(PID.TID 0000.0001) // =======================================================
(PID.TID 0000.0001) // End MONITOR EXF statistics
(PID.TID 0000.0001) // =======================================================
 cg2d: Sum(rhs),rhsMax =   2.95181185606381E+02  3.58934881884103E-02
(PID.TID 0000.0001)      cg2d_init_res =   2.15590658736776E+00
(PID.TID 0000.0001)      cg2d_iters(min,last) =      -1     317
(PID.TID 0000.0001)      cg2d_last_res =   6.85713682439725E-12
(PID.TID 0000.0001) // =======================================================
(PID.TID 0000.0001) // Begin MONITOR dynamic field statistics
(PID.TID 0000.0001) // =======================================================
(PID.TID 0000.0001) %MON time_tsnumber                =                     4
(PID.TID 0000.0001) %MON time_secondsf                =   9.6000000000000E+02
(PID.TID 0000.0001) %MON dynstat_eta_max              =   1.0214303929952E+00
(PID.TID 0000.0001) %MON dynstat_eta_min              =  -1.4978316922609E+00
(PID.TID 0000.0001) %MON dynstat_eta_mean             =  -1.0038256420190E-02
(PID.TID 0000.0001) %MON dynstat_eta_sd               =   1.5079202545753E-01
(PID.TID 0000.0001) %MON dynstat_eta_del2             =   2.7423466540375E-06
(PID.TID 0000.0001) %MON dynstat_uvel_max             =   1.2944587219217E+00
(PID.TID 0000.0001) %MON dynstat_uvel_min             =  -9.5948951408143E-01
(PID.TID 0000.0001) %MON dynstat_uvel_mean            =   3.4982051609152E-03
(PID.TID 0000.0001) %MON dynstat_uvel_sd              =   5.2380109408118E-02
(PID.TID 0000.0001) %MON dynstat_uvel_del2            =   4.6530028716019E-07
(PID.TID 0000.0001) %MON dynstat_vvel_max             =   2.0516105064972E+00
(PID.TID 0000.0001) %MON dynstat_vvel_min             =  -9.0270680760044E-01
(PID.TID 0000.0001) %MON dynstat_vvel_mean            =  -2.0187919669320E-03
(PID.TID 0000.0001) %MON dynstat_vvel_sd              =   4.8286398843264E-02
(PID.TID 0000.0001) %MON dynstat_vvel_del2            =   4.2479262516111E-07
(PID.TID 0000.0001) %MON dynstat_wvel_max             =   3.7214938511678E-02
(PID.TID 0000.0001) %MON dynstat_wvel_min             =  -3.1709156515684E-02
(PID.TID 0000.0001) %MON dynstat_wvel_mean            =  -6.7548297683260E-06
(PID.TID 0000.0001) %MON dynstat_wvel_sd              =   5.8883385912447E-04
(PID.TID 0000.0001) %MON dynstat_wvel_del2            =   8.5573219384767E-08
(PID.TID 0000.0001) %MON dynstat_theta_max            =   2.6140697988792E+01
(PID.TID 0000.0001) %MON dynstat_theta_min            =   1.4688639503284E+00
(PID.TID 0000.0001) %MON dynstat_theta_mean           =   5.5098499382370E+00
(PID.TID 0000.0001) %MON dynstat_theta_sd             =   4.7734220476342E+00
(PID.TID 0000.0001) %MON dynstat_theta_del2           =   4.0043854582969E-06
(PID.TID 0000.0001) %MON dynstat_salt_max             =   3.9178855511153E+01
(PID.TID 0000.0001) %MON dynstat_salt_min             =   3.3091989131874E+01
(PID.TID 0000.0001) %MON dynstat_salt_mean            =   3.5173368895516E+01
(PID.TID 0000.0001) %MON dynstat_salt_sd              =   3.7891145295015E-01
(PID.TID 0000.0001) %MON dynstat_salt_del2            =   4.9959581363478E-07
(PID.TID 0000.0001) %MON dynstat_sst_max              =   2.6137834052759E+01
(PID.TID 0000.0001) %MON dynstat_sst_min              =   4.0343723604830E+00
(PID.TID 0000.0001) %MON dynstat_sst_mean             =   1.9643538861047E+01
(PID.TID 0000.0001) %MON dynstat_sst_sd               =   3.6388576551434E+00
(PID.TID 0000.0001) %MON dynstat_sst_del2             =   1.9066682500553E-05
(PID.TID 0000.0001) %MON dynstat_sss_max              =   3.7335574135338E+01
(PID.TID 0000.0001) %MON dynstat_sss_min              =   3.3091989131874E+01
(PID.TID 0000.0001) %MON dynstat_sss_mean             =   3.5868110412220E+01
(PID.TID 0000.0001) %MON dynstat_sss_sd               =   4.8719174991085E-01
(PID.TID 0000.0001) %MON dynstat_sss_del2             =   4.9837037932863E-06
(PID.TID 0000.0001) %MON forcing_qnet_max             =   1.1589474463604E+03
(PID.TID 0000.0001) %MON forcing_qnet_min             =  -2.6948026252564E+02
(PID.TID 0000.0001) %MON forcing_qnet_mean            =   2.4518296354695E+02
(PID.TID 0000.0001) %MON forcing_qnet_sd              =   1.4498915416384E+02
(PID.TID 0000.0001) %MON forcing_qnet_del2            =   1.6838428375910E-03
(PID.TID 0000.0001) %MON forcing_qsw_max              =   0.0000000000000E+00
(PID.TID 0000.0001) %MON forcing_qsw_min              =   0.0000000000000E+00
(PID.TID 0000.0001) %MON forcing_qsw_mean             =   0.0000000000000E+00
(PID.TID 0000.0001) %MON forcing_qsw_sd               =   0.0000000000000E+00
(PID.TID 0000.0001) %MON forcing_qsw_del2             =   0.0000000000000E+00
(PID.TID 0000.0001) %MON forcing_empmr_max            =   2.6023323146424E-04
(PID.TID 0000.0001) %MON forcing_empmr_min            =  -1.1464378386942E-03
(PID.TID 0000.0001) %MON forcing_empmr_mean           =   1.3434409756643E-05
(PID.TID 0000.0001) %MON forcing_empmr_sd             =   1.0476659800893E-04
(PID.TID 0000.0001) %MON forcing_empmr_del2           =   2.6475355306216E-09
(PID.TID 0000.0001) %MON forcing_fu_max               =   8.3420525425028E-01
(PID.TID 0000.0001) %MON forcing_fu_min               =  -4.2249198074181E-01
(PID.TID 0000.0001) %MON forcing_fu_mean              =   6.3027249234726E-02
(PID.TID 0000.0001) %MON forcing_fu_sd                =   1.5589889725714E-01
(PID.TID 0000.0001) %MON forcing_fu_del2              =   3.6457088826533E-07
(PID.TID 0000.0001) %MON forcing_fv_max               =   4.0129451670296E-01
(PID.TID 0000.0001) %MON forcing_fv_min               =  -5.7045716411908E-01
(PID.TID 0000.0001) %MON forcing_fv_mean              =   1.0633044552465E-02
(PID.TID 0000.0001) %MON forcing_fv_sd                =   1.0235087597297E-01
(PID.TID 0000.0001) %MON forcing_fv_del2              =   2.6908033516790E-07
(PID.TID 0000.0001) %MON trAdv_CFL_u_max              =   7.8535798192031E-02
(PID.TID 0000.0001) %MON trAdv_CFL_v_max              =   1.2962774600461E-01
(PID.TID 0000.0001) %MON trAdv_CFL_w_max              =   4.8279920517473E-01
(PID.TID 0000.0001) %MON advcfl_uvel_max              =   7.8535797122696E-02
(PID.TID 0000.0001) %MON advcfl_vvel_max              =   1.2966546267318E-01
(PID.TID 0000.0001) %MON advcfl_wvel_max              =   4.8423184376576E-01
(PID.TID 0000.0001) %MON advcfl_W_hf_max              =   4.8567300996744E-01
(PID.TID 0000.0001) %MON pe_b_mean                    =  -2.1492612955349E-04
(PID.TID 0000.0001) %MON ke_max                       =   1.8773605753415E+00
(PID.TID 0000.0001) %MON ke_mean                      =   2.5269351525895E-03
(PID.TID 0000.0001) %MON ke_vol                       =   4.5818637279720E+16
(PID.TID 0000.0001) %MON vort_r_min                   =  -4.8883254989902E-04
(PID.TID 0000.0001) %MON vort_r_max                   =   5.7652372793307E-04
(PID.TID 0000.0001) %MON vort_a_mean                  =   8.2147628585905E-05
(PID.TID 0000.0001) %MON vort_a_sd                    =   1.0123610866603E-05
(PID.TID 0000.0001) %MON vort_p_mean                  =   8.4848850075804E-05
(PID.TID 0000.0001) %MON vort_p_sd                    =   3.4975112178817E-05
(PID.TID 0000.0001) %MON surfExpan_theta_mean         =  -5.2512116102830E-05
(PID.TID 0000.0001) %MON surfExpan_salt_mean          =  -4.5638601042188E-04
(PID.TID 0000.0001) // =======================================================
(PID.TID 0000.0001) // End MONITOR dynamic field statistics
(PID.TID 0000.0001) // =======================================================
(PID.TID 0000.0001) // =======================================================
(PID.TID 0000.0001) // Begin OBCS MONITOR field statistics
(PID.TID 0000.0001) // =======================================================
(PID.TID 0000.0001) %MON obc_N_vVel_max               =   6.9553192130751E-01
(PID.TID 0000.0001) %MON obc_N_vVel_min               =  -3.2224932600846E-01
(PID.TID 0000.0001) %MON obc_N_vVel_mean              =   1.3451067297277E-02
(PID.TID 0000.0001) %MON obc_N_vVel_sd                =   6.4688179853585E-02
(PID.TID 0000.0001) %MON obc_N_vVel_Int               =   1.9255316447359E+08
(PID.TID 0000.0001) %MON obc_S_vVel_max               =   2.0516105064972E+00
(PID.TID 0000.0001) %MON obc_S_vVel_min               =  -2.6233395479551E-01
(PID.TID 0000.0001) %MON obc_S_vVel_mean              =   1.3372914318189E-03
(PID.TID 0000.0001) %MON obc_S_vVel_sd                =   3.5879578143183E-02
(PID.TID 0000.0001) %MON obc_S_vVel_Int               =   4.0711028892322E+07
(PID.TID 0000.0001) %MON obc_N_theta_max              =   1.6390508636415E+01
(PID.TID 0000.0001) %MON obc_N_theta_min              =   1.8895909232471E+00
(PID.TID 0000.0001) %MON obc_N_theta_mean             =   5.1589509652887E+00
(PID.TID 0000.0001) %MON obc_N_theta_sd               =   3.4826967698724E+00
(PID.TID 0000.0001) %MON obc_S_theta_max              =   2.5544530313689E+01
(PID.TID 0000.0001) %MON obc_S_theta_min              =   1.4632972260357E+00
(PID.TID 0000.0001) %MON obc_S_theta_mean             =   5.4595545601130E+00
(PID.TID 0000.0001) %MON obc_S_theta_sd               =   5.3559215504875E+00
(PID.TID 0000.0001) %MON obc_N_salt_max               =   3.5910866014505E+01
(PID.TID 0000.0001) %MON obc_N_salt_min               =   3.3295036080578E+01
(PID.TID 0000.0001) %MON obc_N_salt_mean              =   3.5114563132403E+01
(PID.TID 0000.0001) %MON obc_N_salt_sd                =   3.0984885181404E-01
(PID.TID 0000.0001) %MON obc_S_salt_max               =   3.7318319093085E+01
(PID.TID 0000.0001) %MON obc_S_salt_min               =   3.4844694522698E+01
(PID.TID 0000.0001) %MON obc_S_salt_mean              =   3.5168372651167E+01
(PID.TID 0000.0001) %MON obc_S_salt_sd                =   4.5716970351760E-01
(PID.TID 0000.0001) // =======================================================
(PID.TID 0000.0001) // End OBCS MONITOR field statistics
(PID.TID 0000.0001) // =======================================================
(PID.TID 0000.0001) // =======================================================
(PID.TID 0000.0001) // Begin MONITOR EXF statistics
(PID.TID 0000.0001) // =======================================================
(PID.TID 0000.0001) %MON exf_tsnumber                 =                     4
(PID.TID 0000.0001) %MON exf_time_sec                 =   9.6000000000000E+02
(PID.TID 0000.0001) %MON exf_ustress_max              =   8.3490824983961E-01
(PID.TID 0000.0001) %MON exf_ustress_min              =  -4.1944456996950E-01
(PID.TID 0000.0001) %MON exf_ustress_mean             =   6.2959170699456E-02
(PID.TID 0000.0001) %MON exf_ustress_sd               =   1.5546704453026E-01
(PID.TID 0000.0001) %MON exf_ustress_del2             =   3.9395240980165E-07
(PID.TID 0000.0001) %MON exf_vstress_max              =   3.9651770532692E-01
(PID.TID 0000.0001) %MON exf_vstress_min              =  -5.6574901074430E-01
(PID.TID 0000.0001) %MON exf_vstress_mean             =   1.0650495358588E-02
(PID.TID 0000.0001) %MON exf_vstress_sd               =   1.0188762467353E-01
(PID.TID 0000.0001) %MON exf_vstress_del2             =   2.7705280285387E-07
(PID.TID 0000.0001) %MON exf_hflux_max                =   1.1440493482891E+03
(PID.TID 0000.0001) %MON exf_hflux_min                =  -2.6847986819259E+02
(PID.TID 0000.0001) %MON exf_hflux_mean               =   2.4249794353416E+02
(PID.TID 0000.0001) %MON exf_hflux_sd                 =   1.4179872723415E+02
(PID.TID 0000.0001) %MON exf_hflux_del2               =   6.3279466345775E-02
(PID.TID 0000.0001) %MON exf_sflux_max                =   2.5934645796474E-07
(PID.TID 0000.0001) %MON exf_sflux_min                =  -1.2714459915798E-06
(PID.TID 0000.0001) %MON exf_sflux_mean               =   1.4308674311038E-08
(PID.TID 0000.0001) %MON exf_sflux_sd                 =   1.0961702691255E-07
(PID.TID 0000.0001) %MON exf_sflux_del2               =   2.5868698035211E-11
(PID.TID 0000.0001) %MON exf_uwind_max                =   1.9559090955229E+01
(PID.TID 0000.0001) %MON exf_uwind_min                =  -1.5034547435398E+01
(PID.TID 0000.0001) %MON exf_uwind_mean               =   2.4703569606399E+00
(PID.TID 0000.0001) %MON exf_uwind_sd                 =   6.6765099760537E+00
(PID.TID 0000.0001) %MON exf_uwind_del2               =   1.5841056347434E-03
(PID.TID 0000.0001) %MON exf_vwind_max                =   1.4443352429990E+01
(PID.TID 0000.0001) %MON exf_vwind_min                =  -1.2792238254866E+01
(PID.TID 0000.0001) %MON exf_vwind_mean               =   8.5164782266816E-01
(PID.TID 0000.0001) %MON exf_vwind_sd                 =   5.1967811115142E+00
(PID.TID 0000.0001) %MON exf_vwind_del2               =   1.1760984188693E-03
(PID.TID 0000.0001) %MON exf_wspeed_max               =   2.0442977678420E+01
(PID.TID 0000.0001) %MON exf_wspeed_min               =   2.0717544098638E-02
(PID.TID 0000.0001) %MON exf_wspeed_mean              =   7.7286247853828E+00
(PID.TID 0000.0001) %MON exf_wspeed_sd                =   4.3218798959410E+00
(PID.TID 0000.0001) %MON exf_wspeed_del2              =   1.9727786459775E-03
(PID.TID 0000.0001) %MON exf_atemp_max                =   2.9816903840348E+02
(PID.TID 0000.0001) %MON exf_atemp_min                =   2.7444936275877E+02
(PID.TID 0000.0001) %MON exf_atemp_mean               =   2.9068966194096E+02
(PID.TID 0000.0001) %MON exf_atemp_sd                 =   3.9435705119777E+00
(PID.TID 0000.0001) %MON exf_atemp_del2               =   3.8847541276505E-03
(PID.TID 0000.0001) %MON exf_aqh_max                  =   1.6794525319646E-02
(PID.TID 0000.0001) %MON exf_aqh_min                  =   2.7308852542994E-03
(PID.TID 0000.0001) %MON exf_aqh_mean                 =   9.4240198909400E-03
(PID.TID 0000.0001) %MON exf_aqh_sd                   =   2.8724835831864E-03
(PID.TID 0000.0001) %MON exf_aqh_del2                 =   2.1272355683662E-06
(PID.TID 0000.0001) %MON exf_lwflux_max               =   1.5068735724066E+02
(PID.TID 0000.0001) %MON exf_lwflux_min               =   1.1240454350546E+01
(PID.TID 0000.0001) %MON exf_lwflux_mean              =   6.8144887220237E+01
(PID.TID 0000.0001) %MON exf_lwflux_sd                =   2.2436210669925E+01
(PID.TID 0000.0001) %MON exf_lwflux_del2              =   1.5701389899745E-02
(PID.TID 0000.0001) %MON exf_evap_max                 =   2.7340262784426E-07
(PID.TID 0000.0001) %MON exf_evap_min                 =  -9.2617542755378E-08
(PID.TID 0000.0001) %MON exf_evap_mean                =   5.9366564305943E-08
(PID.TID 0000.0001) %MON exf_evap_sd                  =   4.2144250023573E-08
(PID.TID 0000.0001) %MON exf_evap_del2                =   1.6373616986747E-11
(PID.TID 0000.0001) %MON exf_precip_max               =   1.4451137976135E-06
(PID.TID 0000.0001) %MON exf_precip_min               =   0.0000000000000E+00
(PID.TID 0000.0001) %MON exf_precip_mean              =   4.3469410422914E-08
(PID.TID 0000.0001) %MON exf_precip_sd                =   1.1052625452710E-07
(PID.TID 0000.0001) %MON exf_precip_del2              =   2.8082694523231E-11
(PID.TID 0000.0001) %MON exf_swflux_max               =   0.0000000000000E+00
(PID.TID 0000.0001) %MON exf_swflux_min               =   0.0000000000000E+00
(PID.TID 0000.0001) %MON exf_swflux_mean              =   0.0000000000000E+00
(PID.TID 0000.0001) %MON exf_swflux_sd                =   0.0000000000000E+00
(PID.TID 0000.0001) %MON exf_swflux_del2              =   0.0000000000000E+00
(PID.TID 0000.0001) %MON exf_swdown_max               =   0.0000000000000E+00
(PID.TID 0000.0001) %MON exf_swdown_min               =   0.0000000000000E+00
(PID.TID 0000.0001) %MON exf_swdown_mean              =   0.0000000000000E+00
(PID.TID 0000.0001) %MON exf_swdown_sd                =   0.0000000000000E+00
(PID.TID 0000.0001) %MON exf_swdown_del2              =   0.0000000000000E+00
(PID.TID 0000.0001) %MON exf_lwdown_max               =   4.0121794222416E+02
(PID.TID 0000.0001) %MON exf_lwdown_min               =   2.2846851820436E+02
(PID.TID 0000.0001) %MON exf_lwdown_mean              =   3.4683597339020E+02
(PID.TID 0000.0001) %MON exf_lwdown_sd                =   2.7582519051596E+01
(PID.TID 0000.0001) %MON exf_lwdown_del2              =   7.5968774275328E-02
(PID.TID 0000.0001) %MON exf_apressure_max            =   1.0279144997627E+05
(PID.TID 0000.0001) %MON exf_apressure_min            =   9.9993666802430E+04
(PID.TID 0000.0001) %MON exf_apressure_mean           =   1.0216218802452E+05
(PID.TID 0000.0001) %MON exf_apressure_sd             =   4.9961757443131E+02
(PID.TID 0000.0001) %MON exf_apressure_del2           =   2.2356314556156E+01
(PID.TID 0000.0001) %MON exf_runoff_max               =   4.4374798712073E-08
(PID.TID 0000.0001) %MON exf_runoff_min               =   0.0000000000000E+00
(PID.TID 0000.0001) %MON exf_runoff_mean              =   1.5884795719908E-09
(PID.TID 0000.0001) %MON exf_runoff_sd                =   5.3901959599983E-09
(PID.TID 0000.0001) %MON exf_runoff_del2              =   1.2741189756369E-12
(PID.TID 0000.0001) // =======================================================
(PID.TID 0000.0001) // End MONITOR EXF statistics
(PID.TID 0000.0001) // =======================================================
 cg2d: Sum(rhs),rhsMax =   4.03838863826266E+02  3.83834369530278E-02
(PID.TID 0000.0001)      cg2d_init_res =   1.84603324131471E+00
(PID.TID 0000.0001)      cg2d_iters(min,last) =      -1     316
(PID.TID 0000.0001)      cg2d_last_res =   6.79984804494740E-12
(PID.TID 0000.0001) // =======================================================
(PID.TID 0000.0001) // Begin MONITOR dynamic field statistics
(PID.TID 0000.0001) // =======================================================
(PID.TID 0000.0001) %MON time_tsnumber                =                     5
(PID.TID 0000.0001) %MON time_secondsf                =   1.2000000000000E+03
(PID.TID 0000.0001) %MON dynstat_eta_max              =   1.0446228468922E+00
(PID.TID 0000.0001) %MON dynstat_eta_min              =  -1.4278544759124E+00
(PID.TID 0000.0001) %MON dynstat_eta_mean             =  -1.3733389068137E-02
(PID.TID 0000.0001) %MON dynstat_eta_sd               =   1.7078767464918E-01
(PID.TID 0000.0001) %MON dynstat_eta_del2             =   2.5003891369729E-06
(PID.TID 0000.0001) %MON dynstat_uvel_max             =   1.2976207002196E+00
(PID.TID 0000.0001) %MON dynstat_uvel_min             =  -9.0739458739431E-01
(PID.TID 0000.0001) %MON dynstat_uvel_mean            =   3.3184766957970E-03
(PID.TID 0000.0001) %MON dynstat_uvel_sd              =   5.2396194170981E-02
(PID.TID 0000.0001) %MON dynstat_uvel_del2            =   4.6893761168565E-07
(PID.TID 0000.0001) %MON dynstat_vvel_max             =   2.1154440145923E+00
(PID.TID 0000.0001) %MON dynstat_vvel_min             =  -9.0650505764168E-01
(PID.TID 0000.0001) %MON dynstat_vvel_mean            =  -2.3960348363595E-03
(PID.TID 0000.0001) %MON dynstat_vvel_sd              =   4.8404108606574E-02
(PID.TID 0000.0001) %MON dynstat_vvel_del2            =   4.2808680193395E-07
(PID.TID 0000.0001) %MON dynstat_wvel_max             =   3.6941565803710E-02
(PID.TID 0000.0001) %MON dynstat_wvel_min             =  -3.1008466912779E-02
(PID.TID 0000.0001) %MON dynstat_wvel_mean            =  -7.9621677630853E-06
(PID.TID 0000.0001) %MON dynstat_wvel_sd              =   5.8738695791681E-04
(PID.TID 0000.0001) %MON dynstat_wvel_del2            =   8.0880565639482E-08
(PID.TID 0000.0001) %MON dynstat_theta_max            =   2.6140334572603E+01
(PID.TID 0000.0001) %MON dynstat_theta_min            =   1.4688640601211E+00
(PID.TID 0000.0001) %MON dynstat_theta_mean           =   5.5098461357368E+00
(PID.TID 0000.0001) %MON dynstat_theta_sd             =   4.7733988544993E+00
(PID.TID 0000.0001) %MON dynstat_theta_del2           =   4.0082589993419E-06
(PID.TID 0000.0001) %MON dynstat_salt_max             =   3.9176411688350E+01
(PID.TID 0000.0001) %MON dynstat_salt_min             =   3.3092703948803E+01
(PID.TID 0000.0001) %MON dynstat_salt_mean            =   3.5173367939399E+01
(PID.TID 0000.0001) %MON dynstat_salt_sd              =   3.7891087500615E-01
(PID.TID 0000.0001) %MON dynstat_salt_del2            =   5.0282215779817E-07
(PID.TID 0000.0001) %MON dynstat_sst_max              =   2.6137107577099E+01
(PID.TID 0000.0001) %MON dynstat_sst_min              =   4.0203616697365E+00
(PID.TID 0000.0001) %MON dynstat_sst_mean             =   1.9642412314170E+01
(PID.TID 0000.0001) %MON dynstat_sst_sd               =   3.6388971912216E+00
(PID.TID 0000.0001) %MON dynstat_sst_del2             =   1.9071742205965E-05
(PID.TID 0000.0001) %MON dynstat_sss_max              =   3.7335657422384E+01
(PID.TID 0000.0001) %MON dynstat_sss_min              =   3.3092703948803E+01
(PID.TID 0000.0001) %MON dynstat_sss_mean             =   3.5868149510747E+01
(PID.TID 0000.0001) %MON dynstat_sss_sd               =   4.8719180410124E-01
(PID.TID 0000.0001) %MON dynstat_sss_del2             =   4.9727520563160E-06
(PID.TID 0000.0001) %MON forcing_qnet_max             =   1.1612390307967E+03
(PID.TID 0000.0001) %MON forcing_qnet_min             =  -2.7353940927810E+02
(PID.TID 0000.0001) %MON forcing_qnet_mean            =   2.4435381257532E+02
(PID.TID 0000.0001) %MON forcing_qnet_sd              =   1.4414971080896E+02
(PID.TID 0000.0001) %MON forcing_qnet_del2            =   1.6743448222398E-03
(PID.TID 0000.0001) %MON forcing_qsw_max              =   0.0000000000000E+00
(PID.TID 0000.0001) %MON forcing_qsw_min              =   0.0000000000000E+00
(PID.TID 0000.0001) %MON forcing_qsw_mean             =   0.0000000000000E+00
(PID.TID 0000.0001) %MON forcing_qsw_sd               =   0.0000000000000E+00
(PID.TID 0000.0001) %MON forcing_qsw_del2             =   0.0000000000000E+00
(PID.TID 0000.0001) %MON forcing_empmr_max            =   2.5934645796474E-04
(PID.TID 0000.0001) %MON forcing_empmr_min            =  -1.2714459915798E-03
(PID.TID 0000.0001) %MON forcing_empmr_mean           =   1.4308674311038E-05
(PID.TID 0000.0001) %MON forcing_empmr_sd             =   1.0961702691255E-04
(PID.TID 0000.0001) %MON forcing_empmr_del2           =   2.7833401368452E-09
(PID.TID 0000.0001) %MON forcing_fu_max               =   8.3288216866773E-01
(PID.TID 0000.0001) %MON forcing_fu_min               =  -4.1937480749234E-01
(PID.TID 0000.0001) %MON forcing_fu_mean              =   6.3016685531251E-02
(PID.TID 0000.0001) %MON forcing_fu_sd                =   1.5552625282154E-01
(PID.TID 0000.0001) %MON forcing_fu_del2              =   3.5215400002836E-07
(PID.TID 0000.0001) %MON forcing_fv_max               =   3.9612178829331E-01
(PID.TID 0000.0001) %MON forcing_fv_min               =  -5.6875610661909E-01
(PID.TID 0000.0001) %MON forcing_fv_mean              =   1.0630598296697E-02
(PID.TID 0000.0001) %MON forcing_fv_sd                =   1.0201796232566E-01
(PID.TID 0000.0001) %MON forcing_fv_del2              =   2.5666177726720E-07
(PID.TID 0000.0001) %MON trAdv_CFL_u_max              =   7.8727637827616E-02
(PID.TID 0000.0001) %MON trAdv_CFL_v_max              =   1.3366096466269E-01
(PID.TID 0000.0001) %MON trAdv_CFL_w_max              =   4.5624134383533E-01
(PID.TID 0000.0001) %MON advcfl_uvel_max              =   7.8727636755668E-02
(PID.TID 0000.0001) %MON advcfl_vvel_max              =   1.3369985484216E-01
(PID.TID 0000.0001) %MON advcfl_wvel_max              =   4.5759517571615E-01
(PID.TID 0000.0001) %MON advcfl_W_hf_max              =   4.5895706612007E-01
(PID.TID 0000.0001) %MON pe_b_mean                    =  -2.9663628186022E-04
(PID.TID 0000.0001) %MON ke_max                       =   2.0258685096569E+00
(PID.TID 0000.0001) %MON ke_mean                      =   2.5336499369946E-03
(PID.TID 0000.0001) %MON ke_vol                       =   4.5818637279720E+16
(PID.TID 0000.0001) %MON vort_r_min                   =  -5.0037569453545E-04
(PID.TID 0000.0001) %MON vort_r_max                   =   5.5101238606473E-04
(PID.TID 0000.0001) %MON vort_a_mean                  =   8.2147627825489E-05
(PID.TID 0000.0001) %MON vort_a_sd                    =   1.0125623653952E-05
(PID.TID 0000.0001) %MON vort_p_mean                  =   8.4848849290384E-05
(PID.TID 0000.0001) %MON vort_p_sd                    =   3.4972812795877E-05
(PID.TID 0000.0001) %MON surfExpan_theta_mean         =  -9.4218134518797E-05
(PID.TID 0000.0001) %MON surfExpan_salt_mean          =  -5.2874047203663E-04
(PID.TID 0000.0001) // =======================================================
(PID.TID 0000.0001) // End MONITOR dynamic field statistics
(PID.TID 0000.0001) // =======================================================
(PID.TID 0000.0001) // =======================================================
(PID.TID 0000.0001) // Begin OBCS MONITOR field statistics
(PID.TID 0000.0001) // =======================================================
(PID.TID 0000.0001) %MON obc_N_vVel_max               =   6.9543718136846E-01
(PID.TID 0000.0001) %MON obc_N_vVel_min               =  -3.2241212391701E-01
(PID.TID 0000.0001) %MON obc_N_vVel_mean              =   1.3501340616437E-02
(PID.TID 0000.0001) %MON obc_N_vVel_sd                =   6.4680224712309E-02
(PID.TID 0000.0001) %MON obc_N_vVel_Int               =   1.9327283128359E+08
(PID.TID 0000.0001) %MON obc_S_vVel_max               =   2.1154440145923E+00
(PID.TID 0000.0001) %MON obc_S_vVel_min               =  -2.6245505327119E-01
(PID.TID 0000.0001) %MON obc_S_vVel_mean              =   6.3302524519791E-04
(PID.TID 0000.0001) %MON obc_S_vVel_sd                =   3.5920573633926E-02
(PID.TID 0000.0001) %MON obc_S_vVel_Int               =   1.9271124029987E+07
(PID.TID 0000.0001) %MON obc_N_theta_max              =   1.6390420534228E+01
(PID.TID 0000.0001) %MON obc_N_theta_min              =   1.8895909723125E+00
(PID.TID 0000.0001) %MON obc_N_theta_mean             =   5.1589435811386E+00
(PID.TID 0000.0001) %MON obc_N_theta_sd               =   3.4826874778161E+00
(PID.TID 0000.0001) %MON obc_S_theta_max              =   2.5544427564909E+01
(PID.TID 0000.0001) %MON obc_S_theta_min              =   1.4632976223230E+00
(PID.TID 0000.0001) %MON obc_S_theta_mean             =   5.4595537550885E+00
(PID.TID 0000.0001) %MON obc_S_theta_sd               =   5.3559176792685E+00
(PID.TID 0000.0001) %MON obc_N_salt_max               =   3.5910865606142E+01
(PID.TID 0000.0001) %MON obc_N_salt_min               =   3.3295041583212E+01
(PID.TID 0000.0001) %MON obc_N_salt_mean              =   3.5114562836417E+01
(PID.TID 0000.0001) %MON obc_N_salt_sd                =   3.0984873248609E-01
(PID.TID 0000.0001) %MON obc_S_salt_max               =   3.7318312208701E+01
(PID.TID 0000.0001) %MON obc_S_salt_min               =   3.4844694574919E+01
(PID.TID 0000.0001) %MON obc_S_salt_mean              =   3.5168372579251E+01
(PID.TID 0000.0001) %MON obc_S_salt_sd                =   4.5716935243014E-01
(PID.TID 0000.0001) // =======================================================
(PID.TID 0000.0001) // End OBCS MONITOR field statistics
(PID.TID 0000.0001) // =======================================================
(PID.TID 0000.0001) // =======================================================
(PID.TID 0000.0001) // Begin MONITOR EXF statistics
(PID.TID 0000.0001) // =======================================================
(PID.TID 0000.0001) %MON exf_tsnumber                 =                     5
(PID.TID 0000.0001) %MON exf_time_sec                 =   1.2000000000000E+03
(PID.TID 0000.0001) %MON exf_ustress_max              =   8.3398188474476E-01
(PID.TID 0000.0001) %MON exf_ustress_min              =  -4.1637813299466E-01
(PID.TID 0000.0001) %MON exf_ustress_mean             =   6.2978639847569E-02
(PID.TID 0000.0001) %MON exf_ustress_sd               =   1.5519043993180E-01
(PID.TID 0000.0001) %MON exf_ustress_del2             =   3.8561044139501E-07
(PID.TID 0000.0001) %MON exf_vstress_max              =   3.9332732795599E-01
(PID.TID 0000.0001) %MON exf_vstress_min              =  -5.6425849154872E-01
(PID.TID 0000.0001) %MON exf_vstress_mean             =   1.0662287930055E-02
(PID.TID 0000.0001) %MON exf_vstress_sd               =   1.0164680154163E-01
(PID.TID 0000.0001) %MON exf_vstress_del2             =   2.6909046716884E-07
(PID.TID 0000.0001) %MON exf_hflux_max                =   1.1474269919239E+03
(PID.TID 0000.0001) %MON exf_hflux_min                =  -2.7313582230680E+02
(PID.TID 0000.0001) %MON exf_hflux_mean               =   2.4162157692810E+02
(PID.TID 0000.0001) %MON exf_hflux_sd                 =   1.4124441829671E+02
(PID.TID 0000.0001) %MON exf_hflux_del2               =   6.3043313159039E-02
(PID.TID 0000.0001) %MON exf_sflux_max                =   2.5850178067697E-07
(PID.TID 0000.0001) %MON exf_sflux_min                =  -1.3964490474825E-06
(PID.TID 0000.0001) %MON exf_sflux_mean               =   1.5193067877823E-08
(PID.TID 0000.0001) %MON exf_sflux_sd                 =   1.1564757679508E-07
(PID.TID 0000.0001) %MON exf_sflux_del2               =   2.7488814068387E-11
(PID.TID 0000.0001) %MON exf_uwind_max                =   1.9561408929245E+01
(PID.TID 0000.0001) %MON exf_uwind_min                =  -1.4997935807785E+01
(PID.TID 0000.0001) %MON exf_uwind_mean               =   2.4719779654005E+00
(PID.TID 0000.0001) %MON exf_uwind_sd                 =   6.6727698573646E+00
(PID.TID 0000.0001) %MON exf_uwind_del2               =   1.5840885117821E-03
(PID.TID 0000.0001) %MON exf_vwind_max                =   1.4395236626623E+01
(PID.TID 0000.0001) %MON exf_vwind_min                =  -1.2782352153042E+01
(PID.TID 0000.0001) %MON exf_vwind_mean               =   8.5340016436021E-01
(PID.TID 0000.0001) %MON exf_vwind_sd                 =   5.1894399969308E+00
(PID.TID 0000.0001) %MON exf_vwind_del2               =   1.1740951909997E-03
(PID.TID 0000.0001) %MON exf_wspeed_max               =   2.0401365832651E+01
(PID.TID 0000.0001) %MON exf_wspeed_min               =   7.9634167593948E-03
(PID.TID 0000.0001) %MON exf_wspeed_mean              =   7.7224722890785E+00
(PID.TID 0000.0001) %MON exf_wspeed_sd                =   4.3195524881022E+00
(PID.TID 0000.0001) %MON exf_wspeed_del2              =   1.9715790743737E-03
(PID.TID 0000.0001) %MON exf_atemp_max                =   2.9816684107481E+02
(PID.TID 0000.0001) %MON exf_atemp_min                =   2.7442376141193E+02
(PID.TID 0000.0001) %MON exf_atemp_mean               =   2.9068654073506E+02
(PID.TID 0000.0001) %MON exf_atemp_sd                 =   3.9434618242705E+00
(PID.TID 0000.0001) %MON exf_atemp_del2               =   3.8841041752080E-03
(PID.TID 0000.0001) %MON exf_aqh_max                  =   1.6787539069316E-02
(PID.TID 0000.0001) %MON exf_aqh_min                  =   2.7285905449352E-03
(PID.TID 0000.0001) %MON exf_aqh_mean                 =   9.4228317380935E-03
(PID.TID 0000.0001) %MON exf_aqh_sd                   =   2.8724954271144E-03
(PID.TID 0000.0001) %MON exf_aqh_del2                 =   2.1268515031827E-06
(PID.TID 0000.0001) %MON exf_lwflux_max               =   1.5058635504679E+02
(PID.TID 0000.0001) %MON exf_lwflux_min               =   7.2576136384154E+00
(PID.TID 0000.0001) %MON exf_lwflux_mean              =   6.7368439116189E+01
(PID.TID 0000.0001) %MON exf_lwflux_sd                =   2.3459851697705E+01
(PID.TID 0000.0001) %MON exf_lwflux_del2              =   1.5610446269036E-02
(PID.TID 0000.0001) %MON exf_evap_max                 =   2.7489575978547E-07
(PID.TID 0000.0001) %MON exf_evap_min                 =  -9.3330752969517E-08
(PID.TID 0000.0001) %MON exf_evap_mean                =   5.9327091954340E-08
(PID.TID 0000.0001) %MON exf_evap_sd                  =   4.2097104699194E-08
(PID.TID 0000.0001) %MON exf_evap_del2                =   1.6365056594674E-11
(PID.TID 0000.0001) %MON exf_precip_max               =   1.5707758669712E-06
(PID.TID 0000.0001) %MON exf_precip_min               =   0.0000000000000E+00
(PID.TID 0000.0001) %MON exf_precip_mean              =   4.2545544504526E-08
(PID.TID 0000.0001) %MON exf_precip_sd                =   1.1790920676121E-07
(PID.TID 0000.0001) %MON exf_precip_del2              =   2.9781980061447E-11
(PID.TID 0000.0001) %MON exf_swflux_max               =   0.0000000000000E+00
(PID.TID 0000.0001) %MON exf_swflux_min               =   0.0000000000000E+00
(PID.TID 0000.0001) %MON exf_swflux_mean              =   0.0000000000000E+00
(PID.TID 0000.0001) %MON exf_swflux_sd                =   0.0000000000000E+00
(PID.TID 0000.0001) %MON exf_swflux_del2              =   0.0000000000000E+00
(PID.TID 0000.0001) %MON exf_swdown_max               =   0.0000000000000E+00
(PID.TID 0000.0001) %MON exf_swdown_min               =   0.0000000000000E+00
(PID.TID 0000.0001) %MON exf_swdown_mean              =   0.0000000000000E+00
(PID.TID 0000.0001) %MON exf_swdown_sd                =   0.0000000000000E+00
(PID.TID 0000.0001) %MON exf_swdown_del2              =   0.0000000000000E+00
(PID.TID 0000.0001) %MON exf_lwdown_max               =   4.0522099566563E+02
(PID.TID 0000.0001) %MON exf_lwdown_min               =   2.2767373335274E+02
(PID.TID 0000.0001) %MON exf_lwdown_mean              =   3.4763002725977E+02
(PID.TID 0000.0001) %MON exf_lwdown_sd                =   2.8649236487088E+01
(PID.TID 0000.0001) %MON exf_lwdown_del2              =   7.6169591607192E-02
(PID.TID 0000.0001) %MON exf_apressure_max            =   1.0279296101068E+05
(PID.TID 0000.0001) %MON exf_apressure_min            =   9.9998241531020E+04
(PID.TID 0000.0001) %MON exf_apressure_mean           =   1.0216296533085E+05
(PID.TID 0000.0001) %MON exf_apressure_sd             =   4.9937521697955E+02
(PID.TID 0000.0001) %MON exf_apressure_del2           =   2.2356502026794E+01
(PID.TID 0000.0001) %MON exf_runoff_max               =   4.4374798712073E-08
(PID.TID 0000.0001) %MON exf_runoff_min               =   0.0000000000000E+00
(PID.TID 0000.0001) %MON exf_runoff_mean              =   1.5884795719908E-09
(PID.TID 0000.0001) %MON exf_runoff_sd                =   5.3901959599983E-09
(PID.TID 0000.0001) %MON exf_runoff_del2              =   1.2741189756369E-12
(PID.TID 0000.0001) // =======================================================
(PID.TID 0000.0001) // End MONITOR EXF statistics
(PID.TID 0000.0001) // =======================================================
 cg2d: Sum(rhs),rhsMax =   5.26202007567548E+02  4.81881087565316E-02
(PID.TID 0000.0001)      cg2d_init_res =   1.61353849821873E+00
(PID.TID 0000.0001)      cg2d_iters(min,last) =      -1     316
(PID.TID 0000.0001)      cg2d_last_res =   6.41713668443572E-12
(PID.TID 0000.0001) // =======================================================
(PID.TID 0000.0001) // Begin MONITOR dynamic field statistics
(PID.TID 0000.0001) // =======================================================
(PID.TID 0000.0001) %MON time_tsnumber                =                     6
(PID.TID 0000.0001) %MON time_secondsf                =   1.4400000000000E+03
(PID.TID 0000.0001) %MON dynstat_eta_max              =   1.0420590954103E+00
(PID.TID 0000.0001) %MON dynstat_eta_min              =  -1.3363229701952E+00
(PID.TID 0000.0001) %MON dynstat_eta_mean             =  -1.7894604867621E-02
(PID.TID 0000.0001) %MON dynstat_eta_sd               =   1.8780194009166E-01
(PID.TID 0000.0001) %MON dynstat_eta_del2             =   2.3861963425658E-06
(PID.TID 0000.0001) %MON dynstat_uvel_max             =   1.2994263391381E+00
(PID.TID 0000.0001) %MON dynstat_uvel_min             =  -8.0033869123223E-01
(PID.TID 0000.0001) %MON dynstat_uvel_mean            =   3.1155367985422E-03
(PID.TID 0000.0001) %MON dynstat_uvel_sd              =   5.2388683630203E-02
(PID.TID 0000.0001) %MON dynstat_uvel_del2            =   4.7451692544600E-07
(PID.TID 0000.0001) %MON dynstat_vvel_max             =   2.1788666012208E+00
(PID.TID 0000.0001) %MON dynstat_vvel_min             =  -9.0982685974109E-01
(PID.TID 0000.0001) %MON dynstat_vvel_mean            =  -2.7452050815670E-03
(PID.TID 0000.0001) %MON dynstat_vvel_sd              =   4.8545850287855E-02
(PID.TID 0000.0001) %MON dynstat_vvel_del2            =   4.3376275419904E-07
(PID.TID 0000.0001) %MON dynstat_wvel_max             =   3.6521614314160E-02
(PID.TID 0000.0001) %MON dynstat_wvel_min             =  -3.0053108663704E-02
(PID.TID 0000.0001) %MON dynstat_wvel_mean            =  -9.1596774144785E-06
(PID.TID 0000.0001) %MON dynstat_wvel_sd              =   5.8738397335564E-04
(PID.TID 0000.0001) %MON dynstat_wvel_del2            =   7.6890653384934E-08
(PID.TID 0000.0001) %MON dynstat_theta_max            =   2.6140015532925E+01
(PID.TID 0000.0001) %MON dynstat_theta_min            =   1.4688641783954E+00
(PID.TID 0000.0001) %MON dynstat_theta_mean           =   5.5098442068897E+00
(PID.TID 0000.0001) %MON dynstat_theta_sd             =   4.7733783984476E+00
(PID.TID 0000.0001) %MON dynstat_theta_del2           =   4.0124878900243E-06
(PID.TID 0000.0001) %MON dynstat_salt_max             =   3.9173654118594E+01
(PID.TID 0000.0001) %MON dynstat_salt_min             =   3.3093476386817E+01
(PID.TID 0000.0001) %MON dynstat_salt_mean            =   3.5173367170872E+01
(PID.TID 0000.0001) %MON dynstat_salt_sd              =   3.7891067136898E-01
(PID.TID 0000.0001) %MON dynstat_salt_del2            =   5.0643055468957E-07
(PID.TID 0000.0001) %MON dynstat_sst_max              =   2.6136819159883E+01
(PID.TID 0000.0001) %MON dynstat_sst_min              =   4.0063225508900E+00
(PID.TID 0000.0001) %MON dynstat_sst_mean             =   1.9641398460463E+01
(PID.TID 0000.0001) %MON dynstat_sst_sd               =   3.6389386827755E+00
(PID.TID 0000.0001) %MON dynstat_sst_del2             =   1.9082036931922E-05
(PID.TID 0000.0001) %MON dynstat_sss_max              =   3.7335740259467E+01
(PID.TID 0000.0001) %MON dynstat_sss_min              =   3.3093476386817E+01
(PID.TID 0000.0001) %MON dynstat_sss_mean             =   3.5868188162164E+01
(PID.TID 0000.0001) %MON dynstat_sss_sd               =   4.8719199637851E-01
(PID.TID 0000.0001) %MON dynstat_sss_del2             =   4.9628739602271E-06
(PID.TID 0000.0001) %MON forcing_qnet_max             =   1.1647598331496E+03
(PID.TID 0000.0001) %MON forcing_qnet_min             =  -2.7811603877869E+02
(PID.TID 0000.0001) %MON forcing_qnet_mean            =   2.4355756253878E+02
(PID.TID 0000.0001) %MON forcing_qnet_sd              =   1.4340792930464E+02
(PID.TID 0000.0001) %MON forcing_qnet_del2            =   1.6767078922664E-03
(PID.TID 0000.0001) %MON forcing_qsw_max              =   0.0000000000000E+00
(PID.TID 0000.0001) %MON forcing_qsw_min              =   0.0000000000000E+00
(PID.TID 0000.0001) %MON forcing_qsw_mean             =   0.0000000000000E+00
(PID.TID 0000.0001) %MON forcing_qsw_sd               =   0.0000000000000E+00
(PID.TID 0000.0001) %MON forcing_qsw_del2             =   0.0000000000000E+00
(PID.TID 0000.0001) %MON forcing_empmr_max            =   2.5850178067697E-04
(PID.TID 0000.0001) %MON forcing_empmr_min            =  -1.3964490474825E-03
(PID.TID 0000.0001) %MON forcing_empmr_mean           =   1.5193067877823E-05
(PID.TID 0000.0001) %MON forcing_empmr_sd             =   1.1564757679508E-04
(PID.TID 0000.0001) %MON forcing_empmr_del2           =   2.9486406197353E-09
(PID.TID 0000.0001) %MON forcing_fu_max               =   8.3265849806341E-01
(PID.TID 0000.0001) %MON forcing_fu_min               =  -4.1637247164861E-01
(PID.TID 0000.0001) %MON forcing_fu_mean              =   6.3036560171163E-02
(PID.TID 0000.0001) %MON forcing_fu_sd                =   1.5524985655205E-01
(PID.TID 0000.0001) %MON forcing_fu_del2              =   3.4391607111775E-07
(PID.TID 0000.0001) %MON forcing_fv_max               =   3.9284805982075E-01
(PID.TID 0000.0001) %MON forcing_fv_min               =  -5.6749199182529E-01
(PID.TID 0000.0001) %MON forcing_fv_mean              =   1.0642673767372E-02
(PID.TID 0000.0001) %MON forcing_fv_sd                =   1.0177757305463E-01
(PID.TID 0000.0001) %MON forcing_fv_del2              =   2.4857882291398E-07
(PID.TID 0000.0001) %MON trAdv_CFL_u_max              =   7.8837187318306E-02
(PID.TID 0000.0001) %MON trAdv_CFL_v_max              =   1.3766821990164E-01
(PID.TID 0000.0001) %MON trAdv_CFL_w_max              =   4.8639781041065E-01
(PID.TID 0000.0001) %MON advcfl_uvel_max              =   7.8837186244866E-02
(PID.TID 0000.0001) %MON advcfl_vvel_max              =   1.3770827603764E-01
(PID.TID 0000.0001) %MON advcfl_wvel_max              =   4.8262728474855E-01
(PID.TID 0000.0001) %MON advcfl_W_hf_max              =   4.8639781041065E-01
(PID.TID 0000.0001) %MON pe_b_mean                    =  -3.9008844248956E-04
(PID.TID 0000.0001) %MON ke_max                       =   2.1662424509155E+00
(PID.TID 0000.0001) %MON ke_mean                      =   2.5403356150566E-03
(PID.TID 0000.0001) %MON ke_vol                       =   4.5818637279720E+16
(PID.TID 0000.0001) %MON vort_r_min                   =  -5.0733861282768E-04
(PID.TID 0000.0001) %MON vort_r_max                   =   5.4586724001646E-04
(PID.TID 0000.0001) %MON vort_a_mean                  =   8.2147627054294E-05
(PID.TID 0000.0001) %MON vort_a_sd                    =   1.0128232394510E-05
(PID.TID 0000.0001) %MON vort_p_mean                  =   8.4848848493830E-05
(PID.TID 0000.0001) %MON vort_p_sd                    =   3.4971418543497E-05
(PID.TID 0000.0001) %MON surfExpan_theta_mean         =  -1.3638878043837E-04
(PID.TID 0000.0001) %MON surfExpan_salt_mean          =  -6.0026352880744E-04
(PID.TID 0000.0001) // =======================================================
(PID.TID 0000.0001) // End MONITOR dynamic field statistics
(PID.TID 0000.0001) // =======================================================
(PID.TID 0000.0001) // =======================================================
(PID.TID 0000.0001) // Begin OBCS MONITOR field statistics
(PID.TID 0000.0001) // =======================================================
(PID.TID 0000.0001) %MON obc_N_vVel_max               =   6.9533062238007E-01
(PID.TID 0000.0001) %MON obc_N_vVel_min               =  -3.2259805496536E-01
(PID.TID 0000.0001) %MON obc_N_vVel_mean              =   1.3537174950139E-02
(PID.TID 0000.0001) %MON obc_N_vVel_sd                =   6.4669900488856E-02
(PID.TID 0000.0001) %MON obc_N_vVel_Int               =   1.9378580279720E+08
(PID.TID 0000.0001) %MON obc_S_vVel_max               =   2.1788666012208E+00
(PID.TID 0000.0001) %MON obc_S_vVel_min               =  -2.6256909347755E-01
(PID.TID 0000.0001) %MON obc_S_vVel_mean              =  -7.1067361303625E-05
(PID.TID 0000.0001) %MON obc_S_vVel_sd                =   3.5965892379268E-02
(PID.TID 0000.0001) %MON obc_S_vVel_Int               =  -2.1634965501856E+06
(PID.TID 0000.0001) %MON obc_N_theta_max              =   1.6390332432041E+01
(PID.TID 0000.0001) %MON obc_N_theta_min              =   1.8895910213779E+00
(PID.TID 0000.0001) %MON obc_N_theta_mean             =   5.1589361969886E+00
(PID.TID 0000.0001) %MON obc_N_theta_sd               =   3.4826781859977E+00
(PID.TID 0000.0001) %MON obc_S_theta_max              =   2.5544324816130E+01
(PID.TID 0000.0001) %MON obc_S_theta_min              =   1.4632980186102E+00
(PID.TID 0000.0001) %MON obc_S_theta_mean             =   5.4595529500639E+00
(PID.TID 0000.0001) %MON obc_S_theta_sd               =   5.3559138080854E+00
(PID.TID 0000.0001) %MON obc_N_salt_max               =   3.5910865197779E+01
(PID.TID 0000.0001) %MON obc_N_salt_min               =   3.3295047085845E+01
(PID.TID 0000.0001) %MON obc_N_salt_mean              =   3.5114562540430E+01
(PID.TID 0000.0001) %MON obc_N_salt_sd                =   3.0984861318096E-01
(PID.TID 0000.0001) %MON obc_S_salt_max               =   3.7318305324317E+01
(PID.TID 0000.0001) %MON obc_S_salt_min               =   3.4844694627139E+01
(PID.TID 0000.0001) %MON obc_S_salt_mean              =   3.5168372507334E+01
(PID.TID 0000.0001) %MON obc_S_salt_sd                =   4.5716900135870E-01
(PID.TID 0000.0001) // =======================================================
(PID.TID 0000.0001) // End OBCS MONITOR field statistics
(PID.TID 0000.0001) // =======================================================
(PID.TID 0000.0001) // =======================================================
(PID.TID 0000.0001) // Begin MONITOR EXF statistics
(PID.TID 0000.0001) // =======================================================
(PID.TID 0000.0001) %MON exf_tsnumber                 =                     6
(PID.TID 0000.0001) %MON exf_time_sec                 =   1.4400000000000E+03
(PID.TID 0000.0001) %MON exf_ustress_max              =   8.3231569505129E-01
(PID.TID 0000.0001) %MON exf_ustress_min              =  -4.1349178270973E-01
(PID.TID 0000.0001) %MON exf_ustress_mean             =   6.3025867472665E-02
(PID.TID 0000.0001) %MON exf_ustress_sd               =   1.5500068332475E-01
(PID.TID 0000.0001) %MON exf_ustress_del2             =   3.8057741618037E-07
(PID.TID 0000.0001) %MON exf_vstress_max              =   3.9161746742057E-01
(PID.TID 0000.0001) %MON exf_vstress_min              =  -5.6326445811498E-01
(PID.TID 0000.0001) %MON exf_vstress_mean             =   1.0686790621222E-02
(PID.TID 0000.0001) %MON exf_vstress_sd               =   1.0148919428073E-01
(PID.TID 0000.0001) %MON exf_vstress_del2             =   2.6502134675792E-07
(PID.TID 0000.0001) %MON exf_hflux_max                =   1.1510866363856E+03
(PID.TID 0000.0001) %MON exf_hflux_min                =  -2.7784092494927E+02
(PID.TID 0000.0001) %MON exf_hflux_mean               =   2.4077418111704E+02
(PID.TID 0000.0001) %MON exf_hflux_sd                 =   1.4076899665635E+02
(PID.TID 0000.0001) %MON exf_hflux_del2               =   6.2820956736019E-02
(PID.TID 0000.0001) %MON exf_sflux_max                =   2.5770223065872E-07
(PID.TID 0000.0001) %MON exf_sflux_min                =  -1.5214569114048E-06
(PID.TID 0000.0001) %MON exf_sflux_mean               =   1.6086597942245E-08
(PID.TID 0000.0001) %MON exf_sflux_sd                 =   1.2268386474110E-07
(PID.TID 0000.0001) %MON exf_sflux_del2               =   2.9321413959266E-11
(PID.TID 0000.0001) %MON exf_uwind_max                =   1.9558349553222E+01
(PID.TID 0000.0001) %MON exf_uwind_min                =  -1.4964401130952E+01
(PID.TID 0000.0001) %MON exf_uwind_mean               =   2.4736846220189E+00
(PID.TID 0000.0001) %MON exf_uwind_sd                 =   6.6699217349234E+00
(PID.TID 0000.0001) %MON exf_uwind_del2               =   1.5842583784632E-03
(PID.TID 0000.0001) %MON exf_vwind_max                =   1.4374657022398E+01
(PID.TID 0000.0001) %MON exf_vwind_min                =  -1.2776257724613E+01
(PID.TID 0000.0001) %MON exf_vwind_mean               =   8.5515537306618E-01
(PID.TID 0000.0001) %MON exf_vwind_sd                 =   5.1837142767461E+00
(PID.TID 0000.0001) %MON exf_vwind_del2               =   1.1724600469636E-03
(PID.TID 0000.0001) %MON exf_wspeed_max               =   2.0362498543458E+01
(PID.TID 0000.0001) %MON exf_wspeed_min               =   1.2726216258553E-02
(PID.TID 0000.0001) %MON exf_wspeed_mean              =   7.7175969126926E+00
(PID.TID 0000.0001) %MON exf_wspeed_sd                =   4.3183160916540E+00
(PID.TID 0000.0001) %MON exf_wspeed_del2              =   1.9707475726273E-03
(PID.TID 0000.0001) %MON exf_atemp_max                =   2.9816464374613E+02
(PID.TID 0000.0001) %MON exf_atemp_min                =   2.7439816006509E+02
(PID.TID 0000.0001) %MON exf_atemp_mean               =   2.9068341952916E+02
(PID.TID 0000.0001) %MON exf_atemp_sd                 =   3.9434956306238E+00
(PID.TID 0000.0001) %MON exf_atemp_del2               =   3.8834607977409E-03
(PID.TID 0000.0001) %MON exf_aqh_max                  =   1.6780552818986E-02
(PID.TID 0000.0001) %MON exf_aqh_min                  =   2.7262958355709E-03
(PID.TID 0000.0001) %MON exf_aqh_mean                 =   9.4216435852470E-03
(PID.TID 0000.0001) %MON exf_aqh_sd                   =   2.8726800760210E-03
(PID.TID 0000.0001) %MON exf_aqh_del2                 =   2.1264795440286E-06
(PID.TID 0000.0001) %MON exf_lwflux_max               =   1.5056902285744E+02
(PID.TID 0000.0001) %MON exf_lwflux_min               =   3.2740052805896E+00
(PID.TID 0000.0001) %MON exf_lwflux_mean              =   6.6592614075804E+01
(PID.TID 0000.0001) %MON exf_lwflux_sd                =   2.4690403584320E+01
(PID.TID 0000.0001) %MON exf_lwflux_del2              =   1.5541309660660E-02
(PID.TID 0000.0001) %MON exf_evap_max                 =   2.7644076324548E-07
(PID.TID 0000.0001) %MON exf_evap_min                 =  -9.4057588540983E-08
(PID.TID 0000.0001) %MON exf_evap_mean                =   5.9296756100374E-08
(PID.TID 0000.0001) %MON exf_evap_sd                  =   4.2063298030600E-08
(PID.TID 0000.0001) %MON exf_evap_del2                =   1.6359839193033E-11
(PID.TID 0000.0001) %MON exf_precip_max               =   1.6964379363289E-06
(PID.TID 0000.0001) %MON exf_precip_min               =   0.0000000000000E+00
(PID.TID 0000.0001) %MON exf_precip_mean              =   4.1621678586138E-08
(PID.TID 0000.0001) %MON exf_precip_sd                =   1.2611995652867E-07
(PID.TID 0000.0001) %MON exf_precip_del2              =   3.1667810420937E-11
(PID.TID 0000.0001) %MON exf_swflux_max               =   0.0000000000000E+00
(PID.TID 0000.0001) %MON exf_swflux_min               =   0.0000000000000E+00
(PID.TID 0000.0001) %MON exf_swflux_mean              =   0.0000000000000E+00
(PID.TID 0000.0001) %MON exf_swflux_sd                =   0.0000000000000E+00
(PID.TID 0000.0001) %MON exf_swflux_del2              =   0.0000000000000E+00
(PID.TID 0000.0001) %MON exf_swdown_max               =   0.0000000000000E+00
(PID.TID 0000.0001) %MON exf_swdown_min               =   0.0000000000000E+00
(PID.TID 0000.0001) %MON exf_swdown_mean              =   0.0000000000000E+00
(PID.TID 0000.0001) %MON exf_swdown_sd                =   0.0000000000000E+00
(PID.TID 0000.0001) %MON exf_swdown_del2              =   0.0000000000000E+00
(PID.TID 0000.0001) %MON exf_lwdown_max               =   4.0922404910710E+02
(PID.TID 0000.0001) %MON exf_lwdown_min               =   2.2687894850113E+02
(PID.TID 0000.0001) %MON exf_lwdown_mean              =   3.4842408112934E+02
(PID.TID 0000.0001) %MON exf_lwdown_sd                =   2.9896532754363E+01
(PID.TID 0000.0001) %MON exf_lwdown_del2              =   7.6374674507903E-02
(PID.TID 0000.0001) %MON exf_apressure_max            =   1.0279447204508E+05
(PID.TID 0000.0001) %MON exf_apressure_min            =   1.0000228419081E+05
(PID.TID 0000.0001) %MON exf_apressure_mean           =   1.0216374263719E+05
(PID.TID 0000.0001) %MON exf_apressure_sd             =   4.9917253544505E+02
(PID.TID 0000.0001) %MON exf_apressure_del2           =   2.2356689540569E+01
(PID.TID 0000.0001) %MON exf_runoff_max               =   4.4374798712073E-08
(PID.TID 0000.0001) %MON exf_runoff_min               =   0.0000000000000E+00
(PID.TID 0000.0001) %MON exf_runoff_mean              =   1.5884795719908E-09
(PID.TID 0000.0001) %MON exf_runoff_sd                =   5.3901959599983E-09
(PID.TID 0000.0001) %MON exf_runoff_del2              =   1.2741189756369E-12
(PID.TID 0000.0001) // =======================================================
(PID.TID 0000.0001) // End MONITOR EXF statistics
(PID.TID 0000.0001) // =======================================================
 cg2d: Sum(rhs),rhsMax =   6.62121604486755E+02  5.72699317601789E-02
(PID.TID 0000.0001)      cg2d_init_res =   1.48075008311059E+00
(PID.TID 0000.0001)      cg2d_iters(min,last) =      -1     315
(PID.TID 0000.0001)      cg2d_last_res =   6.69659576946555E-12
(PID.TID 0000.0001) // =======================================================
(PID.TID 0000.0001) // Begin MONITOR dynamic field statistics
(PID.TID 0000.0001) // =======================================================
(PID.TID 0000.0001) %MON time_tsnumber                =                     7
(PID.TID 0000.0001) %MON time_secondsf                =   1.6800000000000E+03
(PID.TID 0000.0001) %MON dynstat_eta_max              =   1.0214608516022E+00
(PID.TID 0000.0001) %MON dynstat_eta_min              =  -1.2370550797807E+00
(PID.TID 0000.0001) %MON dynstat_eta_mean             =  -2.2516836340812E-02
(PID.TID 0000.0001) %MON dynstat_eta_sd               =   2.0279611458936E-01
(PID.TID 0000.0001) %MON dynstat_eta_del2             =   2.4129269347892E-06
(PID.TID 0000.0001) %MON dynstat_uvel_max             =   1.2999344223306E+00
(PID.TID 0000.0001) %MON dynstat_uvel_min             =  -7.0950218918534E-01
(PID.TID 0000.0001) %MON dynstat_uvel_mean            =   2.8957701972226E-03
(PID.TID 0000.0001) %MON dynstat_uvel_sd              =   5.2363864438440E-02
(PID.TID 0000.0001) %MON dynstat_uvel_del2            =   4.8239450515716E-07
(PID.TID 0000.0001) %MON dynstat_vvel_max             =   2.2418623661086E+00
(PID.TID 0000.0001) %MON dynstat_vvel_min             =  -9.1279524813268E-01
(PID.TID 0000.0001) %MON dynstat_vvel_mean            =  -3.0706884625594E-03
(PID.TID 0000.0001) %MON dynstat_vvel_sd              =   4.8701212295425E-02
(PID.TID 0000.0001) %MON dynstat_vvel_del2            =   4.4152577588738E-07
(PID.TID 0000.0001) %MON dynstat_wvel_max             =   3.6071064597576E-02
(PID.TID 0000.0001) %MON dynstat_wvel_min             =  -2.9015761686803E-02
(PID.TID 0000.0001) %MON dynstat_wvel_mean            =  -1.0345911775194E-05
(PID.TID 0000.0001) %MON dynstat_wvel_sd              =   5.8956101238058E-04
(PID.TID 0000.0001) %MON dynstat_wvel_del2            =   7.4969032518594E-08
(PID.TID 0000.0001) %MON dynstat_theta_max            =   2.6139699694888E+01
(PID.TID 0000.0001) %MON dynstat_theta_min            =   1.4688643051311E+00
(PID.TID 0000.0001) %MON dynstat_theta_mean           =   5.5098442168426E+00
(PID.TID 0000.0001) %MON dynstat_theta_sd             =   4.7733607605819E+00
(PID.TID 0000.0001) %MON dynstat_theta_del2           =   4.0162734002070E-06
(PID.TID 0000.0001) %MON dynstat_salt_max             =   3.9170611508716E+01
(PID.TID 0000.0001) %MON dynstat_salt_min             =   3.3094300027914E+01
(PID.TID 0000.0001) %MON dynstat_salt_mean            =   3.5173366586657E+01
(PID.TID 0000.0001) %MON dynstat_salt_sd              =   3.7891076608673E-01
(PID.TID 0000.0001) %MON dynstat_salt_del2            =   5.1017453581195E-07
(PID.TID 0000.0001) %MON dynstat_sst_max              =   2.6136727808585E+01
(PID.TID 0000.0001) %MON dynstat_sst_min              =   3.9922110800714E+00
(PID.TID 0000.0001) %MON dynstat_sst_mean             =   1.9640471250746E+01
(PID.TID 0000.0001) %MON dynstat_sst_sd               =   3.6389806985098E+00
(PID.TID 0000.0001) %MON dynstat_sst_del2             =   1.9095138134742E-05
(PID.TID 0000.0001) %MON dynstat_sss_max              =   3.7335822868301E+01
(PID.TID 0000.0001) %MON dynstat_sss_min              =   3.3094300027914E+01
(PID.TID 0000.0001) %MON dynstat_sss_mean             =   3.5868226127329E+01
(PID.TID 0000.0001) %MON dynstat_sss_sd               =   4.8719243166979E-01
(PID.TID 0000.0001) %MON dynstat_sss_del2             =   4.9538878843321E-06
(PID.TID 0000.0001) %MON forcing_qnet_max             =   1.1685194071539E+03
(PID.TID 0000.0001) %MON forcing_qnet_min             =  -2.8274249166140E+02
(PID.TID 0000.0001) %MON forcing_qnet_mean            =   2.4279132028396E+02
(PID.TID 0000.0001) %MON forcing_qnet_sd              =   1.4276002403802E+02
(PID.TID 0000.0001) %MON forcing_qnet_del2            =   1.6734688910306E-03
(PID.TID 0000.0001) %MON forcing_qsw_max              =   0.0000000000000E+00
(PID.TID 0000.0001) %MON forcing_qsw_min              =   0.0000000000000E+00
(PID.TID 0000.0001) %MON forcing_qsw_mean             =   0.0000000000000E+00
(PID.TID 0000.0001) %MON forcing_qsw_sd               =   0.0000000000000E+00
(PID.TID 0000.0001) %MON forcing_qsw_del2             =   0.0000000000000E+00
(PID.TID 0000.0001) %MON forcing_empmr_max            =   2.5770223065872E-04
(PID.TID 0000.0001) %MON forcing_empmr_min            =  -1.5214569114048E-03
(PID.TID 0000.0001) %MON forcing_empmr_mean           =   1.6086597942245E-05
(PID.TID 0000.0001) %MON forcing_empmr_sd             =   1.2268386474110E-04
(PID.TID 0000.0001) %MON forcing_empmr_del2           =   3.1386735722163E-09
(PID.TID 0000.0001) %MON forcing_fu_max               =   8.3112861724698E-01
(PID.TID 0000.0001) %MON forcing_fu_min               =  -4.1343642719268E-01
(PID.TID 0000.0001) %MON forcing_fu_mean              =   6.3084220384838E-02
(PID.TID 0000.0001) %MON forcing_fu_sd                =   1.5506029512559E-01
(PID.TID 0000.0001) %MON forcing_fu_del2              =   3.3925290116208E-07
(PID.TID 0000.0001) %MON forcing_fv_max               =   3.9115621255883E-01
(PID.TID 0000.0001) %MON forcing_fv_min               =  -5.6669978824204E-01
(PID.TID 0000.0001) %MON forcing_fv_mean              =   1.0667469532443E-02
(PID.TID 0000.0001) %MON forcing_fv_sd                =   1.0162031774132E-01
(PID.TID 0000.0001) %MON forcing_fv_del2              =   2.4449336376344E-07
(PID.TID 0000.0001) %MON trAdv_CFL_u_max              =   7.8868013113208E-02
(PID.TID 0000.0001) %MON trAdv_CFL_v_max              =   1.4164850708792E-01
(PID.TID 0000.0001) %MON trAdv_CFL_w_max              =   5.2148776774242E-01
(PID.TID 0000.0001) %MON advcfl_uvel_max              =   7.8868012039348E-02
(PID.TID 0000.0001) %MON advcfl_vvel_max              =   1.4168972133379E-01
(PID.TID 0000.0001) %MON advcfl_wvel_max              =   5.1744522690721E-01
(PID.TID 0000.0001) %MON advcfl_W_hf_max              =   5.2148776774242E-01
(PID.TID 0000.0001) %MON pe_b_mean                    =  -4.9504687702527E-04
(PID.TID 0000.0001) %MON ke_max                       =   2.2935822222320E+00
(PID.TID 0000.0001) %MON ke_mean                      =   2.5468416959957E-03
(PID.TID 0000.0001) %MON ke_vol                       =   4.5818637279720E+16
(PID.TID 0000.0001) %MON vort_r_min                   =  -5.1174095291578E-04
(PID.TID 0000.0001) %MON vort_r_max                   =   5.6464346491192E-04
(PID.TID 0000.0001) %MON vort_a_mean                  =   8.2147626272995E-05
(PID.TID 0000.0001) %MON vort_a_sd                    =   1.0131276618017E-05
(PID.TID 0000.0001) %MON vort_p_mean                  =   8.4848847686840E-05
(PID.TID 0000.0001) %MON vort_p_sd                    =   3.4970906135047E-05
(PID.TID 0000.0001) %MON surfExpan_theta_mean         =  -1.7954543544371E-04
(PID.TID 0000.0001) %MON surfExpan_salt_mean          =  -6.7098681216074E-04
(PID.TID 0000.0001) // =======================================================
(PID.TID 0000.0001) // End MONITOR dynamic field statistics
(PID.TID 0000.0001) // =======================================================
(PID.TID 0000.0001) // =======================================================
(PID.TID 0000.0001) // Begin OBCS MONITOR field statistics
(PID.TID 0000.0001) // =======================================================
(PID.TID 0000.0001) %MON obc_N_vVel_max               =   6.9521236116019E-01
(PID.TID 0000.0001) %MON obc_N_vVel_min               =  -3.2280691227700E-01
(PID.TID 0000.0001) %MON obc_N_vVel_mean              =   1.3558519772720E-02
(PID.TID 0000.0001) %MON obc_N_vVel_sd                =   6.4657344949975E-02
(PID.TID 0000.0001) %MON obc_N_vVel_Int               =   1.9409135573529E+08
(PID.TID 0000.0001) %MON obc_S_vVel_max               =   2.2418623661086E+00
(PID.TID 0000.0001) %MON obc_S_vVel_min               =  -2.6267591393568E-01
(PID.TID 0000.0001) %MON obc_S_vVel_mean              =  -7.7413489822454E-04
(PID.TID 0000.0001) %MON obc_S_vVel_sd                =   3.6015630243837E-02
(PID.TID 0000.0001) %MON obc_S_vVel_Int               =  -2.3566911039958E+07
(PID.TID 0000.0001) %MON obc_N_theta_max              =   1.6390244329854E+01
(PID.TID 0000.0001) %MON obc_N_theta_min              =   1.8895910704432E+00
(PID.TID 0000.0001) %MON obc_N_theta_mean             =   5.1589288128385E+00
(PID.TID 0000.0001) %MON obc_N_theta_sd               =   3.4826688944174E+00
(PID.TID 0000.0001) %MON obc_S_theta_max              =   2.5544222067351E+01
(PID.TID 0000.0001) %MON obc_S_theta_min              =   1.4632984148975E+00
(PID.TID 0000.0001) %MON obc_S_theta_mean             =   5.4595521450393E+00
(PID.TID 0000.0001) %MON obc_S_theta_sd               =   5.3559099369382E+00
(PID.TID 0000.0001) %MON obc_N_salt_max               =   3.5910864789416E+01
(PID.TID 0000.0001) %MON obc_N_salt_min               =   3.3295052588478E+01
(PID.TID 0000.0001) %MON obc_N_salt_mean              =   3.5114562244443E+01
(PID.TID 0000.0001) %MON obc_N_salt_sd                =   3.0984849390781E-01
(PID.TID 0000.0001) %MON obc_S_salt_max               =   3.7318298439933E+01
(PID.TID 0000.0001) %MON obc_S_salt_min               =   3.4844694679359E+01
(PID.TID 0000.0001) %MON obc_S_salt_mean              =   3.5168372435418E+01
(PID.TID 0000.0001) %MON obc_S_salt_sd                =   4.5716865028953E-01
(PID.TID 0000.0001) // =======================================================
(PID.TID 0000.0001) // End OBCS MONITOR field statistics
(PID.TID 0000.0001) // =======================================================
(PID.TID 0000.0001) // =======================================================
(PID.TID 0000.0001) // Begin MONITOR EXF statistics
(PID.TID 0000.0001) // =======================================================
(PID.TID 0000.0001) %MON exf_tsnumber                 =                     7
(PID.TID 0000.0001) %MON exf_time_sec                 =   1.6800000000000E+03
(PID.TID 0000.0001) %MON exf_ustress_max              =   8.3374722281832E-01
(PID.TID 0000.0001) %MON exf_ustress_min              =  -4.1067724775772E-01
(PID.TID 0000.0001) %MON exf_ustress_mean             =   6.3099307989473E-02
(PID.TID 0000.0001) %MON exf_ustress_sd               =   1.5489154269763E-01
(PID.TID 0000.0001) %MON exf_ustress_del2             =   3.7879891017880E-07
(PID.TID 0000.0001) %MON exf_vstress_max              =   3.9086850574961E-01
(PID.TID 0000.0001) %MON exf_vstress_min              =  -5.6271916033806E-01
(PID.TID 0000.0001) %MON exf_vstress_mean             =   1.0722332726001E-02
(PID.TID 0000.0001) %MON exf_vstress_sd               =   1.0140774460264E-01
(PID.TID 0000.0001) %MON exf_vstress_del2             =   2.6479817407474E-07
(PID.TID 0000.0001) %MON exf_hflux_max                =   1.1549765001879E+03
(PID.TID 0000.0001) %MON exf_hflux_min                =  -2.8259312047153E+02
(PID.TID 0000.0001) %MON exf_hflux_mean               =   2.3995354005200E+02
(PID.TID 0000.0001) %MON exf_hflux_sd                 =   1.4037018258099E+02
(PID.TID 0000.0001) %MON exf_hflux_del2               =   6.2612702760844E-02
(PID.TID 0000.0001) %MON exf_sflux_max                =   2.5694749407028E-07
(PID.TID 0000.0001) %MON exf_sflux_min                =  -1.6464738725420E-06
(PID.TID 0000.0001) %MON exf_sflux_mean               =   1.6988678743831E-08
(PID.TID 0000.0001) %MON exf_sflux_sd                 =   1.3056310108552E-07
(PID.TID 0000.0001) %MON exf_sflux_del2               =   3.1329228067590E-11
(PID.TID 0000.0001) %MON exf_uwind_max                =   1.9546148814001E+01
(PID.TID 0000.0001) %MON exf_uwind_min                =  -1.4931455669412E+01
(PID.TID 0000.0001) %MON exf_uwind_mean               =   2.4754533201708E+00
(PID.TID 0000.0001) %MON exf_uwind_sd                 =   6.6679009139015E+00
(PID.TID 0000.0001) %MON exf_uwind_del2               =   1.5846047845712E-03
(PID.TID 0000.0001) %MON exf_vwind_max                =   1.4377473502239E+01
(PID.TID 0000.0001) %MON exf_vwind_min                =  -1.2774131994271E+01
(PID.TID 0000.0001) %MON exf_vwind_mean               =   8.5690808468077E-01
(PID.TID 0000.0001) %MON exf_vwind_sd                 =   5.1795704931832E+00
(PID.TID 0000.0001) %MON exf_vwind_del2               =   1.1711878255530E-03
(PID.TID 0000.0001) %MON exf_wspeed_max               =   2.0328453423067E+01
(PID.TID 0000.0001) %MON exf_wspeed_min               =   9.8524950369705E-03
(PID.TID 0000.0001) %MON exf_wspeed_mean              =   7.7139510101199E+00
(PID.TID 0000.0001) %MON exf_wspeed_sd                =   4.3180983674376E+00
(PID.TID 0000.0001) %MON exf_wspeed_del2              =   1.9702719267906E-03
(PID.TID 0000.0001) %MON exf_atemp_max                =   2.9816244641745E+02
(PID.TID 0000.0001) %MON exf_atemp_min                =   2.7437255871824E+02
(PID.TID 0000.0001) %MON exf_atemp_mean               =   2.9068029832326E+02
(PID.TID 0000.0001) %MON exf_atemp_sd                 =   3.9436719273732E+00
(PID.TID 0000.0001) %MON exf_atemp_del2               =   3.8828239985176E-03
(PID.TID 0000.0001) %MON exf_aqh_max                  =   1.6773566568656E-02
(PID.TID 0000.0001) %MON exf_aqh_min                  =   2.7240011262066E-03
(PID.TID 0000.0001) %MON exf_aqh_mean                 =   9.4204554324004E-03
(PID.TID 0000.0001) %MON exf_aqh_sd                   =   2.8730374965879E-03
(PID.TID 0000.0001) %MON exf_aqh_del2                 =   2.1261196972574E-06
(PID.TID 0000.0001) %MON exf_lwflux_max               =   1.5197373501132E+02
(PID.TID 0000.0001) %MON exf_lwflux_min               =  -3.7857087680060E+00
(PID.TID 0000.0001) %MON exf_lwflux_mean              =   6.5817267878985E+01
(PID.TID 0000.0001) %MON exf_lwflux_sd                =   2.6098603942224E+01
(PID.TID 0000.0001) %MON exf_lwflux_del2              =   1.5494238753160E-02
(PID.TID 0000.0001) %MON exf_evap_max                 =   2.7803066607134E-07
(PID.TID 0000.0001) %MON exf_evap_min                 =  -9.4797489855363E-08
(PID.TID 0000.0001) %MON exf_evap_mean                =   5.9274970983571E-08
(PID.TID 0000.0001) %MON exf_evap_sd                  =   4.2041959242340E-08
(PID.TID 0000.0001) %MON exf_evap_del2                =   1.6357819042142E-11
(PID.TID 0000.0001) %MON exf_precip_max               =   1.8221000056866E-06
(PID.TID 0000.0001) %MON exf_precip_min               =   0.0000000000000E+00
(PID.TID 0000.0001) %MON exf_precip_mean              =   4.0697812667750E-08
(PID.TID 0000.0001) %MON exf_precip_sd                =   1.3500755581447E-07
(PID.TID 0000.0001) %MON exf_precip_del2              =   3.3708891603153E-11
(PID.TID 0000.0001) %MON exf_swflux_max               =   0.0000000000000E+00
(PID.TID 0000.0001) %MON exf_swflux_min               =   0.0000000000000E+00
(PID.TID 0000.0001) %MON exf_swflux_mean              =   0.0000000000000E+00
(PID.TID 0000.0001) %MON exf_swflux_sd                =   0.0000000000000E+00
(PID.TID 0000.0001) %MON exf_swflux_del2              =   0.0000000000000E+00
(PID.TID 0000.0001) %MON exf_swdown_max               =   0.0000000000000E+00
(PID.TID 0000.0001) %MON exf_swdown_min               =   0.0000000000000E+00
(PID.TID 0000.0001) %MON exf_swdown_mean              =   0.0000000000000E+00
(PID.TID 0000.0001) %MON exf_swdown_sd                =   0.0000000000000E+00
(PID.TID 0000.0001) %MON exf_swdown_del2              =   0.0000000000000E+00
(PID.TID 0000.0001) %MON exf_lwdown_max               =   4.1505414476579E+02
(PID.TID 0000.0001) %MON exf_lwdown_min               =   2.2448605534577E+02
(PID.TID 0000.0001) %MON exf_lwdown_mean              =   3.4921813499891E+02
(PID.TID 0000.0001) %MON exf_lwdown_sd                =   3.1302829194029E+01
(PID.TID 0000.0001) %MON exf_lwdown_del2              =   7.6583988709397E-02
(PID.TID 0000.0001) %MON exf_apressure_max            =   1.0279678233353E+05
(PID.TID 0000.0001) %MON exf_apressure_min            =   1.0000622433890E+05
(PID.TID 0000.0001) %MON exf_apressure_mean           =   1.0216451994353E+05
(PID.TID 0000.0001) %MON exf_apressure_sd             =   4.9900957817301E+02
(PID.TID 0000.0001) %MON exf_apressure_del2           =   2.2356877097480E+01
(PID.TID 0000.0001) %MON exf_runoff_max               =   4.4374798712073E-08
(PID.TID 0000.0001) %MON exf_runoff_min               =   0.0000000000000E+00
(PID.TID 0000.0001) %MON exf_runoff_mean              =   1.5884795719908E-09
(PID.TID 0000.0001) %MON exf_runoff_sd                =   5.3901959599983E-09
(PID.TID 0000.0001) %MON exf_runoff_del2              =   1.2741189756369E-12
(PID.TID 0000.0001) // =======================================================
(PID.TID 0000.0001) // End MONITOR EXF statistics
(PID.TID 0000.0001) // =======================================================
 cg2d: Sum(rhs),rhsMax =   8.11432175923066E+02  6.48560706954175E-02
(PID.TID 0000.0001)      cg2d_init_res =   1.50165395127004E+00
(PID.TID 0000.0001)      cg2d_iters(min,last) =      -1     315
(PID.TID 0000.0001)      cg2d_last_res =   6.53379783798214E-12
(PID.TID 0000.0001) // =======================================================
(PID.TID 0000.0001) // Begin MONITOR dynamic field statistics
(PID.TID 0000.0001) // =======================================================
(PID.TID 0000.0001) %MON time_tsnumber                =                     8
(PID.TID 0000.0001) %MON time_secondsf                =   1.9200000000000E+03
(PID.TID 0000.0001) %MON dynstat_eta_max              =   1.0034552632045E+00
(PID.TID 0000.0001) %MON dynstat_eta_min              =  -1.2662682127123E+00
(PID.TID 0000.0001) %MON dynstat_eta_mean             =  -2.7594456038165E-02
(PID.TID 0000.0001) %MON dynstat_eta_sd               =   2.1633503177749E-01
(PID.TID 0000.0001) %MON dynstat_eta_del2             =   2.4631500526514E-06
(PID.TID 0000.0001) %MON dynstat_uvel_max             =   1.2987988533739E+00
(PID.TID 0000.0001) %MON dynstat_uvel_min             =  -7.0420287905420E-01
(PID.TID 0000.0001) %MON dynstat_uvel_mean            =   2.6653185330619E-03
(PID.TID 0000.0001) %MON dynstat_uvel_sd              =   5.2331376738424E-02
(PID.TID 0000.0001) %MON dynstat_uvel_del2            =   4.9209149583430E-07
(PID.TID 0000.0001) %MON dynstat_vvel_max             =   2.3044155098749E+00
(PID.TID 0000.0001) %MON dynstat_vvel_min             =  -9.1534943608929E-01
(PID.TID 0000.0001) %MON dynstat_vvel_mean            =  -3.3760871137431E-03
(PID.TID 0000.0001) %MON dynstat_vvel_sd              =   4.8857580175781E-02
(PID.TID 0000.0001) %MON dynstat_vvel_del2            =   4.5067396540546E-07
(PID.TID 0000.0001) %MON dynstat_wvel_max             =   3.5629281339638E-02
(PID.TID 0000.0001) %MON dynstat_wvel_min             =  -2.8346111237529E-02
(PID.TID 0000.0001) %MON dynstat_wvel_mean            =  -1.1519436772765E-05
(PID.TID 0000.0001) %MON dynstat_wvel_sd              =   5.9348149156510E-04
(PID.TID 0000.0001) %MON dynstat_wvel_del2            =   7.4958818362943E-08
(PID.TID 0000.0001) %MON dynstat_theta_max            =   2.6139142684426E+01
(PID.TID 0000.0001) %MON dynstat_theta_min            =   1.4688644405123E+00
(PID.TID 0000.0001) %MON dynstat_theta_mean           =   5.5098462358447E+00
(PID.TID 0000.0001) %MON dynstat_theta_sd             =   4.7733460747553E+00
(PID.TID 0000.0001) %MON dynstat_theta_del2           =   4.0196150106976E-06
(PID.TID 0000.0001) %MON dynstat_salt_max             =   3.9167319812269E+01
(PID.TID 0000.0001) %MON dynstat_salt_min             =   3.3095173001741E+01
(PID.TID 0000.0001) %MON dynstat_salt_mean            =   3.5173366185284E+01
(PID.TID 0000.0001) %MON dynstat_salt_sd              =   3.7891110258329E-01
(PID.TID 0000.0001) %MON dynstat_salt_del2            =   5.1388383614753E-07
(PID.TID 0000.0001) %MON dynstat_sst_max              =   2.6135525055114E+01
(PID.TID 0000.0001) %MON dynstat_sst_min              =   3.9780321311259E+00
(PID.TID 0000.0001) %MON dynstat_sst_mean             =   1.9639613228055E+01
(PID.TID 0000.0001) %MON dynstat_sst_sd               =   3.6390225358095E+00
(PID.TID 0000.0001) %MON dynstat_sst_del2             =   1.9110204746753E-05
(PID.TID 0000.0001) %MON dynstat_sss_max              =   3.7335905062873E+01
(PID.TID 0000.0001) %MON dynstat_sss_min              =   3.3095173001741E+01
(PID.TID 0000.0001) %MON dynstat_sss_mean             =   3.5868263090806E+01
(PID.TID 0000.0001) %MON dynstat_sss_sd               =   4.8719303996418E-01
(PID.TID 0000.0001) %MON dynstat_sss_del2             =   4.9456216158425E-06
(PID.TID 0000.0001) %MON forcing_qnet_max             =   1.1724881876226E+03
(PID.TID 0000.0001) %MON forcing_qnet_min             =  -2.8741670067683E+02
(PID.TID 0000.0001) %MON forcing_qnet_mean            =   2.4205281968678E+02
(PID.TID 0000.0001) %MON forcing_qnet_sd              =   1.4220402736805E+02
(PID.TID 0000.0001) %MON forcing_qnet_del2            =   1.6733595141445E-03
(PID.TID 0000.0001) %MON forcing_qsw_max              =   0.0000000000000E+00
(PID.TID 0000.0001) %MON forcing_qsw_min              =   0.0000000000000E+00
(PID.TID 0000.0001) %MON forcing_qsw_mean             =   0.0000000000000E+00
(PID.TID 0000.0001) %MON forcing_qsw_sd               =   0.0000000000000E+00
(PID.TID 0000.0001) %MON forcing_qsw_del2             =   0.0000000000000E+00
(PID.TID 0000.0001) %MON forcing_empmr_max            =   2.5694749407028E-04
(PID.TID 0000.0001) %MON forcing_empmr_min            =  -1.6464738725420E-03
(PID.TID 0000.0001) %MON forcing_empmr_mean           =   1.6988678743831E-05
(PID.TID 0000.0001) %MON forcing_empmr_sd             =   1.3056310108552E-04
(PID.TID 0000.0001) %MON forcing_empmr_del2           =   3.3490143238557E-09
(PID.TID 0000.0001) %MON forcing_fu_max               =   8.3327243646578E-01
(PID.TID 0000.0001) %MON forcing_fu_min               =  -4.1062512500189E-01
(PID.TID 0000.0001) %MON forcing_fu_mean              =   6.3158115316653E-02
(PID.TID 0000.0001) %MON forcing_fu_sd                =   1.5495133820106E-01
(PID.TID 0000.0001) %MON forcing_fu_del2              =   3.3761177359617E-07
(PID.TID 0000.0001) %MON forcing_fv_max               =   3.9065701033067E-01
(PID.TID 0000.0001) %MON forcing_fv_min               =  -5.6634802377249E-01
(PID.TID 0000.0001) %MON forcing_fv_mean              =   1.0703318388349E-02
(PID.TID 0000.0001) %MON forcing_fv_sd                =   1.0153915761261E-01
(PID.TID 0000.0001) %MON forcing_fv_del2              =   2.4417065247312E-07
(PID.TID 0000.0001) %MON trAdv_CFL_u_max              =   7.8799117278293E-02
(PID.TID 0000.0001) %MON trAdv_CFL_v_max              =   1.4560082796279E-01
(PID.TID 0000.0001) %MON trAdv_CFL_w_max              =   5.3551432409227E-01
(PID.TID 0000.0001) %MON advcfl_uvel_max              =   7.8799116205372E-02
(PID.TID 0000.0001) %MON advcfl_vvel_max              =   1.4564319218142E-01
(PID.TID 0000.0001) %MON advcfl_wvel_max              =   5.3136305026210E-01
(PID.TID 0000.0001) %MON advcfl_W_hf_max              =   5.3551432409227E-01
(PID.TID 0000.0001) %MON pe_b_mean                    =  -6.1128763950235E-04
(PID.TID 0000.0001) %MON ke_max                       =   2.4136627850362E+00
(PID.TID 0000.0001) %MON ke_mean                      =   2.5530796679535E-03
(PID.TID 0000.0001) %MON ke_vol                       =   4.5818637279720E+16
(PID.TID 0000.0001) %MON vort_r_min                   =  -5.1449670575979E-04
(PID.TID 0000.0001) %MON vort_r_max                   =   6.0048979893418E-04
(PID.TID 0000.0001) %MON vort_a_mean                  =   8.2147625482284E-05
(PID.TID 0000.0001) %MON vort_a_sd                    =   1.0134612858156E-05
(PID.TID 0000.0001) %MON vort_p_mean                  =   8.4848846870129E-05
(PID.TID 0000.0001) %MON vort_p_sd                    =   3.4971243433327E-05
(PID.TID 0000.0001) %MON surfExpan_theta_mean         =  -2.2376065841290E-04
(PID.TID 0000.0001) %MON surfExpan_salt_mean          =  -7.4085884436436E-04
(PID.TID 0000.0001) // =======================================================
(PID.TID 0000.0001) // End MONITOR dynamic field statistics
(PID.TID 0000.0001) // =======================================================
(PID.TID 0000.0001) // =======================================================
(PID.TID 0000.0001) // Begin OBCS MONITOR field statistics
(PID.TID 0000.0001) // =======================================================
(PID.TID 0000.0001) %MON obc_N_vVel_max               =   6.9508252845469E-01
(PID.TID 0000.0001) %MON obc_N_vVel_min               =  -3.2303846185327E-01
(PID.TID 0000.0001) %MON obc_N_vVel_mean              =   1.3565341758323E-02
(PID.TID 0000.0001) %MON obc_N_vVel_sd                =   6.4642702525486E-02
(PID.TID 0000.0001) %MON obc_N_vVel_Int               =   1.9418901303540E+08
(PID.TID 0000.0001) %MON obc_S_vVel_max               =   2.3044155098749E+00
(PID.TID 0000.0001) %MON obc_S_vVel_min               =  -2.6277536312677E-01
(PID.TID 0000.0001) %MON obc_S_vVel_mean              =  -1.4753268654655E-03
(PID.TID 0000.0001) %MON obc_S_vVel_sd                =   3.6069865338561E-02
(PID.TID 0000.0001) %MON obc_S_vVel_Int               =  -4.4913227750133E+07
(PID.TID 0000.0001) %MON obc_N_theta_max              =   1.6390156227667E+01
(PID.TID 0000.0001) %MON obc_N_theta_min              =   1.8895911195086E+00
(PID.TID 0000.0001) %MON obc_N_theta_mean             =   5.1589214286885E+00
(PID.TID 0000.0001) %MON obc_N_theta_sd               =   3.4826596030751E+00
(PID.TID 0000.0001) %MON obc_S_theta_max              =   2.5544119318571E+01
(PID.TID 0000.0001) %MON obc_S_theta_min              =   1.4632988111847E+00
(PID.TID 0000.0001) %MON obc_S_theta_mean             =   5.4595513400147E+00
(PID.TID 0000.0001) %MON obc_S_theta_sd               =   5.3559060658268E+00
(PID.TID 0000.0001) %MON obc_N_salt_max               =   3.5910864381053E+01
(PID.TID 0000.0001) %MON obc_N_salt_min               =   3.3295058091112E+01
(PID.TID 0000.0001) %MON obc_N_salt_mean              =   3.5114561948457E+01
(PID.TID 0000.0001) %MON obc_N_salt_sd                =   3.0984837468061E-01
(PID.TID 0000.0001) %MON obc_S_salt_max               =   3.7318291555549E+01
(PID.TID 0000.0001) %MON obc_S_salt_min               =   3.4844694731580E+01
(PID.TID 0000.0001) %MON obc_S_salt_mean              =   3.5168372363501E+01
(PID.TID 0000.0001) %MON obc_S_salt_sd                =   4.5716829923947E-01
(PID.TID 0000.0001) // =======================================================
(PID.TID 0000.0001) // End OBCS MONITOR field statistics
(PID.TID 0000.0001) // =======================================================
(PID.TID 0000.0001)  EXF_INTERP_READ: opening file: era5/ERA5_rain_2008
(PID.TID 0000.0001)  EXF_INTERP_READ: opening file: era5/ERA5_dsw_2008
(PID.TID 0000.0001)  EXF_INTERP_READ: opening file: era5/ERA5_dlw_2008
(PID.TID 0000.0001) // =======================================================
(PID.TID 0000.0001) // Begin MONITOR EXF statistics
(PID.TID 0000.0001) // =======================================================
(PID.TID 0000.0001) %MON exf_tsnumber                 =                     8
(PID.TID 0000.0001) %MON exf_time_sec                 =   1.9200000000000E+03
(PID.TID 0000.0001) %MON exf_ustress_max              =   8.4413659519970E-01
(PID.TID 0000.0001) %MON exf_ustress_min              =  -4.0795995444201E-01
(PID.TID 0000.0001) %MON exf_ustress_mean             =   6.3197809067542E-02
(PID.TID 0000.0001) %MON exf_ustress_sd               =   1.5485864627714E-01
(PID.TID 0000.0001) %MON exf_ustress_del2             =   3.7973849639721E-07
(PID.TID 0000.0001) %MON exf_vstress_max              =   3.9076877566522E-01
(PID.TID 0000.0001) %MON exf_vstress_min              =  -5.6287957375425E-01
(PID.TID 0000.0001) %MON exf_vstress_mean             =   1.0767229469994E-02
(PID.TID 0000.0001) %MON exf_vstress_sd               =   1.0139723470362E-01
(PID.TID 0000.0001) %MON exf_vstress_del2             =   2.6768543191487E-07
(PID.TID 0000.0001) %MON exf_hflux_max                =   1.1601030712369E+03
(PID.TID 0000.0001) %MON exf_hflux_min                =  -2.8616104708433E+02
(PID.TID 0000.0001) %MON exf_hflux_mean               =   2.3953680819067E+02
(PID.TID 0000.0001) %MON exf_hflux_sd                 =   1.4022847531787E+02
(PID.TID 0000.0001) %MON exf_hflux_del2               =   6.2522300150809E-02
(PID.TID 0000.0001) %MON exf_sflux_max                =   2.5587099467326E-07
(PID.TID 0000.0001) %MON exf_sflux_min                =  -1.7183935837747E-06
(PID.TID 0000.0001) %MON exf_sflux_mean               =   1.7315365218528E-08
(PID.TID 0000.0001) %MON exf_sflux_sd                 =   1.3420514969627E-07
(PID.TID 0000.0001) %MON exf_sflux_del2               =   3.2331952730004E-11
(PID.TID 0000.0001) %MON exf_uwind_max                =   1.9626474049562E+01
(PID.TID 0000.0001) %MON exf_uwind_min                =  -1.4899752126096E+01
(PID.TID 0000.0001) %MON exf_uwind_mean               =   2.4772693461364E+00
(PID.TID 0000.0001) %MON exf_uwind_sd                 =   6.6666606203735E+00
(PID.TID 0000.0001) %MON exf_uwind_del2               =   1.5851196608691E-03
(PID.TID 0000.0001) %MON exf_vwind_max                =   1.4392481448071E+01
(PID.TID 0000.0001) %MON exf_vwind_min                =  -1.2775840774599E+01
(PID.TID 0000.0001) %MON exf_vwind_mean               =   8.5865429457580E-01
(PID.TID 0000.0001) %MON exf_vwind_sd                 =   5.1769839785870E+00
(PID.TID 0000.0001) %MON exf_vwind_del2               =   1.1702757886533E-03
(PID.TID 0000.0001) %MON exf_wspeed_max               =   2.0301165334951E+01
(PID.TID 0000.0001) %MON exf_wspeed_min               =   3.1720581798713E-03
(PID.TID 0000.0001) %MON exf_wspeed_mean              =   7.7114979488297E+00
(PID.TID 0000.0001) %MON exf_wspeed_sd                =   4.3188513447305E+00
(PID.TID 0000.0001) %MON exf_wspeed_del2              =   1.9701438735803E-03
(PID.TID 0000.0001) %MON exf_atemp_max                =   2.9816024908877E+02
(PID.TID 0000.0001) %MON exf_atemp_min                =   2.7434695737140E+02
(PID.TID 0000.0001) %MON exf_atemp_mean               =   2.9067717711736E+02
(PID.TID 0000.0001) %MON exf_atemp_sd                 =   3.9439906954105E+00
(PID.TID 0000.0001) %MON exf_atemp_del2               =   3.8821937807754E-03
(PID.TID 0000.0001) %MON exf_aqh_max                  =   1.6766580318326E-02
(PID.TID 0000.0001) %MON exf_aqh_min                  =   2.7217064168423E-03
(PID.TID 0000.0001) %MON exf_aqh_mean                 =   9.4192672795539E-03
(PID.TID 0000.0001) %MON exf_aqh_sd                   =   2.8735676243460E-03
(PID.TID 0000.0001) %MON exf_aqh_del2                 =   2.1257719690203E-06
(PID.TID 0000.0001) %MON exf_lwflux_max               =   1.5286011877301E+02
(PID.TID 0000.0001) %MON exf_lwflux_min               =  -6.8274129922259E+00
(PID.TID 0000.0001) %MON exf_lwflux_mean              =   6.5420391834093E+01
(PID.TID 0000.0001) %MON exf_lwflux_sd                =   2.6803555534520E+01
(PID.TID 0000.0001) %MON exf_lwflux_del2              =   1.5474336982602E-02
(PID.TID 0000.0001) %MON exf_evap_max                 =   2.7968627351902E-07
(PID.TID 0000.0001) %MON exf_evap_min                 =  -9.5551701841948E-08
(PID.TID 0000.0001) %MON exf_evap_mean                =   5.9261292156518E-08
(PID.TID 0000.0001) %MON exf_evap_sd                  =   4.2032533486623E-08
(PID.TID 0000.0001) %MON exf_evap_del2                =   1.6358902228871E-11
(PID.TID 0000.0001) %MON exf_precip_max               =   1.8946563861111E-06
(PID.TID 0000.0001) %MON exf_precip_min               =   0.0000000000000E+00
(PID.TID 0000.0001) %MON exf_precip_mean              =   4.0357447366000E-08
(PID.TID 0000.0001) %MON exf_precip_sd                =   1.3917899041698E-07
(PID.TID 0000.0001) %MON exf_precip_del2              =   3.4784935734566E-11
(PID.TID 0000.0001) %MON exf_swflux_max               =   0.0000000000000E+00
(PID.TID 0000.0001) %MON exf_swflux_min               =   0.0000000000000E+00
(PID.TID 0000.0001) %MON exf_swflux_mean              =   0.0000000000000E+00
(PID.TID 0000.0001) %MON exf_swflux_sd                =   0.0000000000000E+00
(PID.TID 0000.0001) %MON exf_swflux_del2              =   0.0000000000000E+00
(PID.TID 0000.0001) %MON exf_swdown_max               =   0.0000000000000E+00
(PID.TID 0000.0001) %MON exf_swdown_min               =   0.0000000000000E+00
(PID.TID 0000.0001) %MON exf_swdown_mean              =   0.0000000000000E+00
(PID.TID 0000.0001) %MON exf_swdown_sd                =   0.0000000000000E+00
(PID.TID 0000.0001) %MON exf_swdown_del2              =   0.0000000000000E+00
(PID.TID 0000.0001) %MON exf_lwdown_max               =   4.1825043251463E+02
(PID.TID 0000.0001) %MON exf_lwdown_min               =   2.2314380611649E+02
(PID.TID 0000.0001) %MON exf_lwdown_mean              =   3.4962240752248E+02
(PID.TID 0000.0001) %MON exf_lwdown_sd                =   3.1990068047018E+01
(PID.TID 0000.0001) %MON exf_lwdown_del2              =   7.6687983129252E-02
(PID.TID 0000.0001) %MON exf_apressure_max            =   1.0279973711983E+05
(PID.TID 0000.0001) %MON exf_apressure_min            =   1.0000974426081E+05
(PID.TID 0000.0001) %MON exf_apressure_mean           =   1.0216529724987E+05
(PID.TID 0000.0001) %MON exf_apressure_sd             =   4.9888638409029E+02
(PID.TID 0000.0001) %MON exf_apressure_del2           =   2.2357064697526E+01
(PID.TID 0000.0001) %MON exf_runoff_max               =   4.4374798712073E-08
(PID.TID 0000.0001) %MON exf_runoff_min               =   0.0000000000000E+00
(PID.TID 0000.0001) %MON exf_runoff_mean              =   1.5884795719908E-09
(PID.TID 0000.0001) %MON exf_runoff_sd                =   5.3901959599983E-09
(PID.TID 0000.0001) %MON exf_runoff_del2              =   1.2741189756369E-12
(PID.TID 0000.0001) // =======================================================
(PID.TID 0000.0001) // End MONITOR EXF statistics
(PID.TID 0000.0001) // =======================================================
 cg2d: Sum(rhs),rhsMax =   9.73951970979466E+02  7.08217702880762E-02
(PID.TID 0000.0001)      cg2d_init_res =   1.59934310732122E+00
(PID.TID 0000.0001)      cg2d_iters(min,last) =      -1     314
(PID.TID 0000.0001)      cg2d_last_res =   6.92052996539460E-12
(PID.TID 0000.0001) // =======================================================
(PID.TID 0000.0001) // Begin MONITOR dynamic field statistics
(PID.TID 0000.0001) // =======================================================
(PID.TID 0000.0001) %MON time_tsnumber                =                     9
(PID.TID 0000.0001) %MON time_secondsf                =   2.1600000000000E+03
(PID.TID 0000.0001) %MON dynstat_eta_max              =   9.9690013190081E-01
(PID.TID 0000.0001) %MON dynstat_eta_min              =  -1.3918077571339E+00
(PID.TID 0000.0001) %MON dynstat_eta_mean             =  -3.3121283138549E-02
(PID.TID 0000.0001) %MON dynstat_eta_sd               =   2.2872932615679E-01
(PID.TID 0000.0001) %MON dynstat_eta_del2             =   2.4590164162688E-06
(PID.TID 0000.0001) %MON dynstat_uvel_max             =   1.2958935066178E+00
(PID.TID 0000.0001) %MON dynstat_uvel_min             =  -7.0261292020300E-01
(PID.TID 0000.0001) %MON dynstat_uvel_mean            =   2.4295674179317E-03
(PID.TID 0000.0001) %MON dynstat_uvel_sd              =   5.2300774049150E-02
(PID.TID 0000.0001) %MON dynstat_uvel_del2            =   5.0240785259648E-07
(PID.TID 0000.0001) %MON dynstat_vvel_max             =   2.3665103372262E+00
(PID.TID 0000.0001) %MON dynstat_vvel_min             =  -9.1730441515097E-01
(PID.TID 0000.0001) %MON dynstat_vvel_mean            =  -3.6636673157726E-03
(PID.TID 0000.0001) %MON dynstat_vvel_sd              =   4.9003306248213E-02
(PID.TID 0000.0001) %MON dynstat_vvel_del2            =   4.6002316244320E-07
(PID.TID 0000.0001) %MON dynstat_wvel_max             =   3.5177812651003E-02
(PID.TID 0000.0001) %MON dynstat_wvel_min             =  -2.9013000876827E-02
(PID.TID 0000.0001) %MON dynstat_wvel_mean            =  -1.2678833044955E-05
(PID.TID 0000.0001) %MON dynstat_wvel_sd              =   5.9797021421495E-04
(PID.TID 0000.0001) %MON dynstat_wvel_del2            =   7.5495084588719E-08
(PID.TID 0000.0001) %MON dynstat_theta_max            =   2.6139010405964E+01
(PID.TID 0000.0001) %MON dynstat_theta_min            =   1.4688645849434E+00
(PID.TID 0000.0001) %MON dynstat_theta_mean           =   5.5098502956125E+00
(PID.TID 0000.0001) %MON dynstat_theta_sd             =   4.7733344162166E+00
(PID.TID 0000.0001) %MON dynstat_theta_del2           =   4.0228507203890E-06
(PID.TID 0000.0001) %MON dynstat_salt_max             =   3.9163812294624E+01
(PID.TID 0000.0001) %MON dynstat_salt_min             =   3.3096093781564E+01
(PID.TID 0000.0001) %MON dynstat_salt_mean            =   3.5173365959998E+01
(PID.TID 0000.0001) %MON dynstat_salt_sd              =   3.7891163412652E-01
(PID.TID 0000.0001) %MON dynstat_salt_del2            =   5.1744284974059E-07
(PID.TID 0000.0001) %MON dynstat_sst_max              =   2.6135815938881E+01
(PID.TID 0000.0001) %MON dynstat_sst_min              =   3.9638357368348E+00
(PID.TID 0000.0001) %MON dynstat_sst_mean             =   1.9638810047429E+01
(PID.TID 0000.0001) %MON dynstat_sst_sd               =   3.6390636147166E+00
(PID.TID 0000.0001) %MON dynstat_sst_del2             =   1.9129082301093E-05
(PID.TID 0000.0001) %MON dynstat_sss_max              =   3.7335986510161E+01
(PID.TID 0000.0001) %MON dynstat_sss_min              =   3.3096093781564E+01
(PID.TID 0000.0001) %MON dynstat_sss_mean             =   3.5868298336819E+01
(PID.TID 0000.0001) %MON dynstat_sss_sd               =   4.8719313822029E-01
(PID.TID 0000.0001) %MON dynstat_sss_del2             =   4.9379282611932E-06
(PID.TID 0000.0001) %MON forcing_qnet_max             =   1.1777905382859E+03
(PID.TID 0000.0001) %MON forcing_qnet_min             =  -2.9096230099368E+02
(PID.TID 0000.0001) %MON forcing_qnet_mean            =   2.4166868584028E+02
(PID.TID 0000.0001) %MON forcing_qnet_sd              =   1.4197850669202E+02
(PID.TID 0000.0001) %MON forcing_qnet_del2            =   1.6703729940062E-03
(PID.TID 0000.0001) %MON forcing_qsw_max              =   0.0000000000000E+00
(PID.TID 0000.0001) %MON forcing_qsw_min              =   0.0000000000000E+00
(PID.TID 0000.0001) %MON forcing_qsw_mean             =   0.0000000000000E+00
(PID.TID 0000.0001) %MON forcing_qsw_sd               =   0.0000000000000E+00
(PID.TID 0000.0001) %MON forcing_qsw_del2             =   0.0000000000000E+00
(PID.TID 0000.0001) %MON forcing_empmr_max            =   2.5587099467326E-04
(PID.TID 0000.0001) %MON forcing_empmr_min            =  -1.7183935837747E-03
(PID.TID 0000.0001) %MON forcing_empmr_mean           =   1.7315365218528E-05
(PID.TID 0000.0001) %MON forcing_empmr_sd             =   1.3420514969627E-04
(PID.TID 0000.0001) %MON forcing_empmr_del2           =   3.3580682178453E-09
(PID.TID 0000.0001) %MON forcing_fu_max               =   8.4341780050495E-01
(PID.TID 0000.0001) %MON forcing_fu_min               =  -4.0794003652617E-01
(PID.TID 0000.0001) %MON forcing_fu_mean              =   6.3257087530870E-02
(PID.TID 0000.0001) %MON forcing_fu_sd                =   1.5491861120366E-01
(PID.TID 0000.0001) %MON forcing_fu_del2              =   3.3871232954618E-07
(PID.TID 0000.0001) %MON forcing_fv_max               =   3.9070131675704E-01
(PID.TID 0000.0001) %MON forcing_fv_min               =  -5.6663098483682E-01
(PID.TID 0000.0001) %MON forcing_fv_mean              =   1.0748538209774E-02
(PID.TID 0000.0001) %MON forcing_fv_sd                =   1.0152888649873E-01
(PID.TID 0000.0001) %MON forcing_fv_del2              =   2.4706617080677E-07
(PID.TID 0000.0001) %MON trAdv_CFL_u_max              =   7.8622847674129E-02
(PID.TID 0000.0001) %MON trAdv_CFL_v_max              =   1.4952419084409E-01
(PID.TID 0000.0001) %MON trAdv_CFL_w_max              =   5.3013805934326E-01
(PID.TID 0000.0001) %MON advcfl_uvel_max              =   7.8622846603608E-02
(PID.TID 0000.0001) %MON advcfl_vvel_max              =   1.4956769660982E-01
(PID.TID 0000.0001) %MON advcfl_wvel_max              =   5.2602846198401E-01
(PID.TID 0000.0001) %MON advcfl_W_hf_max              =   5.3013805934326E-01
(PID.TID 0000.0001) %MON pe_b_mean                    =  -7.3861887416951E-04
(PID.TID 0000.0001) %MON ke_max                       =   2.5365866318572E+00
(PID.TID 0000.0001) %MON ke_mean                      =   2.5589890857526E-03
(PID.TID 0000.0001) %MON ke_vol                       =   4.5818637279720E+16
(PID.TID 0000.0001) %MON vort_r_min                   =  -5.1585972948862E-04
(PID.TID 0000.0001) %MON vort_r_max                   =   6.4290488240288E-04
(PID.TID 0000.0001) %MON vort_a_mean                  =   8.2147624682866E-05
(PID.TID 0000.0001) %MON vort_a_sd                    =   1.0138106736802E-05
(PID.TID 0000.0001) %MON vort_p_mean                  =   8.4848846044424E-05
(PID.TID 0000.0001) %MON vort_p_sd                    =   3.4972353129484E-05
(PID.TID 0000.0001) %MON surfExpan_theta_mean         =  -2.6846109669457E-04
(PID.TID 0000.0001) %MON surfExpan_salt_mean          =  -8.0972966104572E-04
(PID.TID 0000.0001) // =======================================================
(PID.TID 0000.0001) // End MONITOR dynamic field statistics
(PID.TID 0000.0001) // =======================================================
(PID.TID 0000.0001) // =======================================================
(PID.TID 0000.0001) // Begin OBCS MONITOR field statistics
(PID.TID 0000.0001) // =======================================================
(PID.TID 0000.0001) %MON obc_N_vVel_max               =   6.9494126870028E-01
(PID.TID 0000.0001) %MON obc_N_vVel_min               =  -3.2329244299176E-01
(PID.TID 0000.0001) %MON obc_N_vVel_mean              =   1.3557624938349E-02
(PID.TID 0000.0001) %MON obc_N_vVel_sd                =   6.4626123524563E-02
(PID.TID 0000.0001) %MON obc_N_vVel_Int               =   1.9407854610568E+08
(PID.TID 0000.0001) %MON obc_S_vVel_max               =   2.3665103372262E+00
(PID.TID 0000.0001) %MON obc_S_vVel_min               =  -2.6286729972578E-01
(PID.TID 0000.0001) %MON obc_S_vVel_mean              =  -2.1737948102404E-03
(PID.TID 0000.0001) %MON obc_S_vVel_sd                =   3.6128657339757E-02
(PID.TID 0000.0001) %MON obc_S_vVel_Int               =  -6.6176617317669E+07
(PID.TID 0000.0001) %MON obc_N_theta_max              =   1.6390068125480E+01
(PID.TID 0000.0001) %MON obc_N_theta_min              =   1.8895911685740E+00
(PID.TID 0000.0001) %MON obc_N_theta_mean             =   5.1589140445384E+00
(PID.TID 0000.0001) %MON obc_N_theta_sd               =   3.4826503119708E+00
(PID.TID 0000.0001) %MON obc_S_theta_max              =   2.5544016569792E+01
(PID.TID 0000.0001) %MON obc_S_theta_min              =   1.4632992074720E+00
(PID.TID 0000.0001) %MON obc_S_theta_mean             =   5.4595505349901E+00
(PID.TID 0000.0001) %MON obc_S_theta_sd               =   5.3559021947514E+00
(PID.TID 0000.0001) %MON obc_N_salt_max               =   3.5910863972689E+01
(PID.TID 0000.0001) %MON obc_N_salt_min               =   3.3295063593745E+01
(PID.TID 0000.0001) %MON obc_N_salt_mean              =   3.5114561652470E+01
(PID.TID 0000.0001) %MON obc_N_salt_sd                =   3.0984825548436E-01
(PID.TID 0000.0001) %MON obc_S_salt_max               =   3.7318284671165E+01
(PID.TID 0000.0001) %MON obc_S_salt_min               =   3.4844694783800E+01
(PID.TID 0000.0001) %MON obc_S_salt_mean              =   3.5168372291584E+01
(PID.TID 0000.0001) %MON obc_S_salt_sd                =   4.5716794818441E-01
(PID.TID 0000.0001) // =======================================================
(PID.TID 0000.0001) // End OBCS MONITOR field statistics
(PID.TID 0000.0001) // =======================================================
(PID.TID 0000.0001) // =======================================================
(PID.TID 0000.0001) // Begin MONITOR EXF statistics
(PID.TID 0000.0001) // =======================================================
(PID.TID 0000.0001) %MON exf_tsnumber                 =                     9
(PID.TID 0000.0001) %MON exf_time_sec                 =   2.1600000000000E+03
(PID.TID 0000.0001) %MON exf_ustress_max              =   8.5492088670873E-01
(PID.TID 0000.0001) %MON exf_ustress_min              =  -4.0539562901474E-01
(PID.TID 0000.0001) %MON exf_ustress_mean             =   6.3320668375807E-02
(PID.TID 0000.0001) %MON exf_ustress_sd               =   1.5489915746449E-01
(PID.TID 0000.0001) %MON exf_ustress_del2             =   3.8402035295994E-07
(PID.TID 0000.0001) %MON exf_vstress_max              =   3.9217572023205E-01
(PID.TID 0000.0001) %MON exf_vstress_min              =  -5.6363809647974E-01
(PID.TID 0000.0001) %MON exf_vstress_mean             =   1.0819678633569E-02
(PID.TID 0000.0001) %MON exf_vstress_sd               =   1.0145384473483E-01
(PID.TID 0000.0001) %MON exf_vstress_del2             =   2.7372042329416E-07
(PID.TID 0000.0001) %MON exf_hflux_max                =   1.1665062805495E+03
(PID.TID 0000.0001) %MON exf_hflux_min                =  -2.8860878485164E+02
(PID.TID 0000.0001) %MON exf_hflux_mean               =   2.3952338527541E+02
(PID.TID 0000.0001) %MON exf_hflux_sd                 =   1.4031693886649E+02
(PID.TID 0000.0001) %MON exf_hflux_del2               =   6.2546719239910E-02
(PID.TID 0000.0001) %MON exf_sflux_max                =   2.5654312598672E-07
(PID.TID 0000.0001) %MON exf_sflux_min                =  -1.7372094012974E-06
(PID.TID 0000.0001) %MON exf_sflux_mean               =   1.7066306702104E-08
(PID.TID 0000.0001) %MON exf_sflux_sd                 =   1.3329246891555E-07
(PID.TID 0000.0001) %MON exf_sflux_del2               =   3.2285295242954E-11
(PID.TID 0000.0001) %MON exf_uwind_max                =   1.9731661522255E+01
(PID.TID 0000.0001) %MON exf_uwind_min                =  -1.4870803316950E+01
(PID.TID 0000.0001) %MON exf_uwind_mean               =   2.4791240378091E+00
(PID.TID 0000.0001) %MON exf_uwind_sd                 =   6.6661693358557E+00
(PID.TID 0000.0001) %MON exf_uwind_del2               =   1.5857953059160E-03
(PID.TID 0000.0001) %MON exf_vwind_max                =   1.4422057044112E+01
(PID.TID 0000.0001) %MON exf_vwind_min                =  -1.2781474995094E+01
(PID.TID 0000.0001) %MON exf_vwind_mean               =   8.6038878506546E-01
(PID.TID 0000.0001) %MON exf_vwind_sd                 =   5.1759351174614E+00
(PID.TID 0000.0001) %MON exf_vwind_del2               =   1.1697215724532E-03
(PID.TID 0000.0001) %MON exf_wspeed_max               =   2.0283845246540E+01
(PID.TID 0000.0001) %MON exf_wspeed_min               =   1.2420428024552E-02
(PID.TID 0000.0001) %MON exf_wspeed_mean              =   7.7102093657781E+00
(PID.TID 0000.0001) %MON exf_wspeed_sd                =   4.3205456075188E+00
(PID.TID 0000.0001) %MON exf_wspeed_del2              =   1.9703555742463E-03
(PID.TID 0000.0001) %MON exf_atemp_max                =   2.9815805176010E+02
(PID.TID 0000.0001) %MON exf_atemp_min                =   2.7432135602455E+02
(PID.TID 0000.0001) %MON exf_atemp_mean               =   2.9067405591146E+02
(PID.TID 0000.0001) %MON exf_atemp_sd                 =   3.9444519001948E+00
(PID.TID 0000.0001) %MON exf_atemp_del2               =   3.8815701477198E-03
(PID.TID 0000.0001) %MON exf_aqh_max                  =   1.6759594067996E-02
(PID.TID 0000.0001) %MON exf_aqh_min                  =   2.7194117074780E-03
(PID.TID 0000.0001) %MON exf_aqh_mean                 =   9.4180791267074E-03
(PID.TID 0000.0001) %MON exf_aqh_sd                   =   2.8742703637333E-03
(PID.TID 0000.0001) %MON exf_aqh_del2                 =   2.1254363652653E-06
(PID.TID 0000.0001) %MON exf_lwflux_max               =   1.5313195838699E+02
(PID.TID 0000.0001) %MON exf_lwflux_min               =  -4.6269668752688E+00
(PID.TID 0000.0001) %MON exf_lwflux_mean              =   6.5401906564251E+01
(PID.TID 0000.0001) %MON exf_lwflux_sd                =   2.6703214776038E+01
(PID.TID 0000.0001) %MON exf_lwflux_del2              =   1.5466234863587E-02
(PID.TID 0000.0001) %MON exf_evap_max                 =   2.8140592983234E-07
(PID.TID 0000.0001) %MON exf_evap_min                 =  -9.6361260830315E-08
(PID.TID 0000.0001) %MON exf_evap_mean                =   5.9255368954983E-08
(PID.TID 0000.0001) %MON exf_evap_sd                  =   4.2034758671746E-08
(PID.TID 0000.0001) %MON exf_evap_del2                =   1.6362990801525E-11
(PID.TID 0000.0001) %MON exf_precip_max               =   1.9141070776022E-06
(PID.TID 0000.0001) %MON exf_precip_min               =   0.0000000000000E+00
(PID.TID 0000.0001) %MON exf_precip_mean              =   4.0600582680888E-08
(PID.TID 0000.0001) %MON exf_precip_sd                =   1.3843006968585E-07
(PID.TID 0000.0001) %MON exf_precip_del2              =   3.4860788778378E-11
(PID.TID 0000.0001) %MON exf_swflux_max               =   0.0000000000000E+00
(PID.TID 0000.0001) %MON exf_swflux_min               =   0.0000000000000E+00
(PID.TID 0000.0001) %MON exf_swflux_mean              =   0.0000000000000E+00
(PID.TID 0000.0001) %MON exf_swflux_sd                =   0.0000000000000E+00
(PID.TID 0000.0001) %MON exf_swflux_del2              =   0.0000000000000E+00
(PID.TID 0000.0001) %MON exf_swdown_max               =   0.0000000000000E+00
(PID.TID 0000.0001) %MON exf_swdown_min               =   0.0000000000000E+00
(PID.TID 0000.0001) %MON exf_swdown_mean              =   0.0000000000000E+00
(PID.TID 0000.0001) %MON exf_swdown_sd                =   0.0000000000000E+00
(PID.TID 0000.0001) %MON exf_swdown_del2              =   0.0000000000000E+00
(PID.TID 0000.0001) %MON exf_lwdown_max               =   4.1828155649792E+02
(PID.TID 0000.0001) %MON exf_lwdown_min               =   2.2358338387105E+02
(PID.TID 0000.0001) %MON exf_lwdown_mean              =   3.4963689870004E+02
(PID.TID 0000.0001) %MON exf_lwdown_sd                =   3.1864231529218E+01
(PID.TID 0000.0001) %MON exf_lwdown_del2              =   7.6683775480410E-02
(PID.TID 0000.0001) %MON exf_apressure_max            =   1.0280269190612E+05
(PID.TID 0000.0001) %MON exf_apressure_min            =   1.0001241168543E+05
(PID.TID 0000.0001) %MON exf_apressure_mean           =   1.0216607455621E+05
(PID.TID 0000.0001) %MON exf_apressure_sd             =   4.9880298265896E+02
(PID.TID 0000.0001) %MON exf_apressure_del2           =   2.2357252340705E+01
(PID.TID 0000.0001) %MON exf_runoff_max               =   4.4374798712073E-08
(PID.TID 0000.0001) %MON exf_runoff_min               =   0.0000000000000E+00
(PID.TID 0000.0001) %MON exf_runoff_mean              =   1.5884795719908E-09
(PID.TID 0000.0001) %MON exf_runoff_sd                =   5.3901959599983E-09
(PID.TID 0000.0001) %MON exf_runoff_del2              =   1.2741189756369E-12
(PID.TID 0000.0001) // =======================================================
(PID.TID 0000.0001) // End MONITOR EXF statistics
(PID.TID 0000.0001) // =======================================================
 cg2d: Sum(rhs),rhsMax =   1.14948318187700E+03  7.52808111329176E-02
(PID.TID 0000.0001)      cg2d_init_res =   1.65660054734382E+00
(PID.TID 0000.0001)      cg2d_iters(min,last) =      -1     314
(PID.TID 0000.0001)      cg2d_last_res =   6.53681730307012E-12
(PID.TID 0000.0001) // =======================================================
(PID.TID 0000.0001) // Begin MONITOR dynamic field statistics
(PID.TID 0000.0001) // =======================================================
(PID.TID 0000.0001) %MON time_tsnumber                =                    10
(PID.TID 0000.0001) %MON time_secondsf                =   2.4000000000000E+03
(PID.TID 0000.0001) %MON dynstat_eta_max              =   9.9398556467236E-01
(PID.TID 0000.0001) %MON dynstat_eta_min              =  -1.3983074170509E+00
(PID.TID 0000.0001) %MON dynstat_eta_mean             =  -3.9090590772829E-02
(PID.TID 0000.0001) %MON dynstat_eta_sd               =   2.4014459568962E-01
(PID.TID 0000.0001) %MON dynstat_eta_del2             =   2.4103685593388E-06
(PID.TID 0000.0001) %MON dynstat_uvel_max             =   1.2914047657052E+00
(PID.TID 0000.0001) %MON dynstat_uvel_min             =  -7.0095535703856E-01
(PID.TID 0000.0001) %MON dynstat_uvel_mean            =   2.1927905604674E-03
(PID.TID 0000.0001) %MON dynstat_uvel_sd              =   5.2278679234635E-02
(PID.TID 0000.0001) %MON dynstat_uvel_del2            =   5.1226261566233E-07
(PID.TID 0000.0001) %MON dynstat_vvel_max             =   2.4281312600680E+00
(PID.TID 0000.0001) %MON dynstat_vvel_min             =  -9.1850183686583E-01
(PID.TID 0000.0001) %MON dynstat_vvel_mean            =  -3.9340231787201E-03
(PID.TID 0000.0001) %MON dynstat_vvel_sd              =   4.9130729402117E-02
(PID.TID 0000.0001) %MON dynstat_vvel_del2            =   4.6866642057381E-07
(PID.TID 0000.0001) %MON dynstat_wvel_max             =   3.4683267723111E-02
(PID.TID 0000.0001) %MON dynstat_wvel_min             =  -3.0236382530182E-02
(PID.TID 0000.0001) %MON dynstat_wvel_mean            =  -1.3822697757394E-05
(PID.TID 0000.0001) %MON dynstat_wvel_sd              =   6.0192559088668E-04
(PID.TID 0000.0001) %MON dynstat_wvel_del2            =   7.5315178600237E-08
(PID.TID 0000.0001) %MON dynstat_theta_max            =   2.6140703503063E+01
(PID.TID 0000.0001) %MON dynstat_theta_min            =   1.4688647390207E+00
(PID.TID 0000.0001) %MON dynstat_theta_mean           =   5.5098563765346E+00
(PID.TID 0000.0001) %MON dynstat_theta_sd             =   4.7733257640083E+00
(PID.TID 0000.0001) %MON dynstat_theta_del2           =   4.0261141371045E-06
(PID.TID 0000.0001) %MON dynstat_salt_max             =   3.9160113571976E+01
(PID.TID 0000.0001) %MON dynstat_salt_min             =   3.3097060922407E+01
(PID.TID 0000.0001) %MON dynstat_salt_mean            =   3.5173365897415E+01
(PID.TID 0000.0001) %MON dynstat_salt_sd              =   3.7891231943209E-01
(PID.TID 0000.0001) %MON dynstat_salt_del2            =   5.2075942731945E-07
(PID.TID 0000.0001) %MON dynstat_sst_max              =   2.6137284123059E+01
(PID.TID 0000.0001) %MON dynstat_sst_min              =   3.9496744256033E+00
(PID.TID 0000.0001) %MON dynstat_sst_mean             =   1.9638050937431E+01
(PID.TID 0000.0001) %MON dynstat_sst_sd               =   3.6391034654819E+00
(PID.TID 0000.0001) %MON dynstat_sst_del2             =   1.9151886342114E-05
(PID.TID 0000.0001) %MON dynstat_sss_max              =   3.7336066800793E+01
(PID.TID 0000.0001) %MON dynstat_sss_min              =   3.3097060922407E+01
(PID.TID 0000.0001) %MON dynstat_sss_mean             =   3.5868331552589E+01
(PID.TID 0000.0001) %MON dynstat_sss_sd               =   4.8719207287017E-01
(PID.TID 0000.0001) %MON dynstat_sss_del2             =   4.9307523836044E-06
(PID.TID 0000.0001) %MON forcing_qnet_max             =   1.1844037292180E+03
(PID.TID 0000.0001) %MON forcing_qnet_min             =  -2.9341765151571E+02
(PID.TID 0000.0001) %MON forcing_qnet_mean            =   2.4163819477760E+02
(PID.TID 0000.0001) %MON forcing_qnet_sd              =   1.4204490736538E+02
(PID.TID 0000.0001) %MON forcing_qnet_del2            =   1.6628479093770E-03
(PID.TID 0000.0001) %MON forcing_qsw_max              =   0.0000000000000E+00
(PID.TID 0000.0001) %MON forcing_qsw_min              =   0.0000000000000E+00
(PID.TID 0000.0001) %MON forcing_qsw_mean             =   0.0000000000000E+00
(PID.TID 0000.0001) %MON forcing_qsw_sd               =   0.0000000000000E+00
(PID.TID 0000.0001) %MON forcing_qsw_del2             =   0.0000000000000E+00
(PID.TID 0000.0001) %MON forcing_empmr_max            =   2.5654312598672E-04
(PID.TID 0000.0001) %MON forcing_empmr_min            =  -1.7372094012974E-03
(PID.TID 0000.0001) %MON forcing_empmr_mean           =   1.7066306702104E-05
(PID.TID 0000.0001) %MON forcing_empmr_sd             =   1.3329246891555E-04
(PID.TID 0000.0001) %MON forcing_empmr_del2           =   3.1667430124069E-09
(PID.TID 0000.0001) %MON forcing_fu_max               =   8.5458076814006E-01
(PID.TID 0000.0001) %MON forcing_fu_min               =  -4.0530573533475E-01
(PID.TID 0000.0001) %MON forcing_fu_mean              =   6.3380434082526E-02
(PID.TID 0000.0001) %MON forcing_fu_sd                =   1.5495928369605E-01
(PID.TID 0000.0001) %MON forcing_fu_del2              =   3.4376258085185E-07
(PID.TID 0000.0001) %MON forcing_fv_max               =   3.9198868446629E-01
(PID.TID 0000.0001) %MON forcing_fv_min               =  -5.6758311536779E-01
(PID.TID 0000.0001) %MON forcing_fv_mean              =   1.0801329209119E-02
(PID.TID 0000.0001) %MON forcing_fv_sd                =   1.0158569201195E-01
(PID.TID 0000.0001) %MON forcing_fv_del2              =   2.5309672194864E-07
(PID.TID 0000.0001) %MON trAdv_CFL_u_max              =   7.8350512338536E-02
(PID.TID 0000.0001) %MON trAdv_CFL_v_max              =   1.5341761082289E-01
(PID.TID 0000.0001) %MON trAdv_CFL_w_max              =   5.0958618100965E-01
(PID.TID 0000.0001) %MON advcfl_uvel_max              =   7.8350511271723E-02
(PID.TID 0000.0001) %MON advcfl_vvel_max              =   1.5346224942349E-01
(PID.TID 0000.0001) %MON advcfl_wvel_max              =   5.0563590053670E-01
(PID.TID 0000.0001) %MON advcfl_W_hf_max              =   5.0958618100965E-01
(PID.TID 0000.0001) %MON pe_b_mean                    =  -8.7687019823268E-04
(PID.TID 0000.0001) %MON ke_max                       =   2.6677521389767E+00
(PID.TID 0000.0001) %MON ke_mean                      =   2.5645344109539E-03
(PID.TID 0000.0001) %MON ke_vol                       =   4.5818637279720E+16
(PID.TID 0000.0001) %MON vort_r_min                   =  -5.1705762953430E-04
(PID.TID 0000.0001) %MON vort_r_max                   =   6.8315136632000E-04
(PID.TID 0000.0001) %MON vort_a_mean                  =   8.2147623875456E-05
(PID.TID 0000.0001) %MON vort_a_sd                    =   1.0141646364384E-05
(PID.TID 0000.0001) %MON vort_p_mean                  =   8.4848845210464E-05
(PID.TID 0000.0001) %MON vort_p_sd                    =   3.4974125510696E-05
(PID.TID 0000.0001) %MON surfExpan_theta_mean         =  -3.1276649661512E-04
(PID.TID 0000.0001) %MON surfExpan_salt_mean          =  -8.7740726202518E-04
(PID.TID 0000.0001) // =======================================================
(PID.TID 0000.0001) // End MONITOR dynamic field statistics
(PID.TID 0000.0001) // =======================================================
(PID.TID 0000.0001) // =======================================================
(PID.TID 0000.0001) // Begin OBCS MONITOR field statistics
(PID.TID 0000.0001) // =======================================================
(PID.TID 0000.0001) %MON obc_N_vVel_max               =   6.9478873976617E-01
(PID.TID 0000.0001) %MON obc_N_vVel_min               =  -3.2356856874258E-01
(PID.TID 0000.0001) %MON obc_N_vVel_mean              =   1.3535370834126E-02
(PID.TID 0000.0001) %MON obc_N_vVel_sd                =   6.4607763335849E-02
(PID.TID 0000.0001) %MON obc_N_vVel_Int               =   1.9375997672409E+08
(PID.TID 0000.0001) %MON obc_S_vVel_max               =   2.4281312600680E+00
(PID.TID 0000.0001) %MON obc_S_vVel_min               =  -2.6295159281772E-01
(PID.TID 0000.0001) %MON obc_S_vVel_mean              =  -2.8686933837102E-03
(PID.TID 0000.0001) %MON obc_S_vVel_sd                =   3.6192046919410E-02
(PID.TID 0000.0001) %MON obc_S_vVel_Int               =  -8.7331344872667E+07
(PID.TID 0000.0001) %MON obc_N_theta_max              =   1.6389980023293E+01
(PID.TID 0000.0001) %MON obc_N_theta_min              =   1.8895912176394E+00
(PID.TID 0000.0001) %MON obc_N_theta_mean             =   5.1589066603884E+00
(PID.TID 0000.0001) %MON obc_N_theta_sd               =   3.4826410211044E+00
(PID.TID 0000.0001) %MON obc_S_theta_max              =   2.5543913821012E+01
(PID.TID 0000.0001) %MON obc_S_theta_min              =   1.4632996037592E+00
(PID.TID 0000.0001) %MON obc_S_theta_mean             =   5.4595497299655E+00
(PID.TID 0000.0001) %MON obc_S_theta_sd               =   5.3558983237118E+00
(PID.TID 0000.0001) %MON obc_N_salt_max               =   3.5910863564326E+01
(PID.TID 0000.0001) %MON obc_N_salt_min               =   3.3295069096378E+01
(PID.TID 0000.0001) %MON obc_N_salt_mean              =   3.5114561356483E+01
(PID.TID 0000.0001) %MON obc_N_salt_sd                =   3.0984813633341E-01
(PID.TID 0000.0001) %MON obc_S_salt_max               =   3.7318277786781E+01
(PID.TID 0000.0001) %MON obc_S_salt_min               =   3.4844694836021E+01
(PID.TID 0000.0001) %MON obc_S_salt_mean              =   3.5168372219668E+01
(PID.TID 0000.0001) %MON obc_S_salt_sd                =   4.5716759715695E-01
(PID.TID 0000.0001) // =======================================================
(PID.TID 0000.0001) // End OBCS MONITOR field statistics
(PID.TID 0000.0001) // =======================================================
(PID.TID 0000.0001) // =======================================================
(PID.TID 0000.0001) // Begin MONITOR EXF statistics
(PID.TID 0000.0001) // =======================================================
(PID.TID 0000.0001) %MON exf_tsnumber                 =                    10
(PID.TID 0000.0001) %MON exf_time_sec                 =   2.4000000000000E+03
(PID.TID 0000.0001) %MON exf_ustress_max              =   8.6626713247064E-01
(PID.TID 0000.0001) %MON exf_ustress_min              =  -4.0287462699867E-01
(PID.TID 0000.0001) %MON exf_ustress_mean             =   6.3467750745056E-02
(PID.TID 0000.0001) %MON exf_ustress_sd               =   1.5501190189494E-01
(PID.TID 0000.0001) %MON exf_ustress_del2             =   3.9118534069425E-07
(PID.TID 0000.0001) %MON exf_vstress_max              =   3.9435404271476E-01
(PID.TID 0000.0001) %MON exf_vstress_min              =  -5.6463769295704E-01
(PID.TID 0000.0001) %MON exf_vstress_mean             =   1.0878065288187E-02
(PID.TID 0000.0001) %MON exf_vstress_sd               =   1.0157529710713E-01
(PID.TID 0000.0001) %MON exf_vstress_del2             =   2.8283466915561E-07
(PID.TID 0000.0001) %MON exf_hflux_max                =   1.1731330543596E+03
(PID.TID 0000.0001) %MON exf_hflux_min                =  -2.9120308581212E+02
(PID.TID 0000.0001) %MON exf_hflux_mean               =   2.3953333547420E+02
(PID.TID 0000.0001) %MON exf_hflux_sd                 =   1.4044449107014E+02
(PID.TID 0000.0001) %MON exf_hflux_del2               =   6.2580725716525E-02
(PID.TID 0000.0001) %MON exf_sflux_max                =   2.5724496611455E-07
(PID.TID 0000.0001) %MON exf_sflux_min                =  -1.7560217374587E-06
(PID.TID 0000.0001) %MON exf_sflux_mean               =   1.6824825321479E-08
(PID.TID 0000.0001) %MON exf_sflux_sd                 =   1.3268215502259E-07
(PID.TID 0000.0001) %MON exf_sflux_del2               =   3.2328052982475E-11
(PID.TID 0000.0001) %MON exf_uwind_max                =   1.9838059337561E+01
(PID.TID 0000.0001) %MON exf_uwind_min                =  -1.4843134129616E+01
(PID.TID 0000.0001) %MON exf_uwind_mean               =   2.4810111432226E+00
(PID.TID 0000.0001) %MON exf_uwind_sd                 =   6.6664049070781E+00
(PID.TID 0000.0001) %MON exf_uwind_del2               =   1.5866241344679E-03
(PID.TID 0000.0001) %MON exf_vwind_max                =   1.4466450799326E+01
(PID.TID 0000.0001) %MON exf_vwind_min                =  -1.2790626359947E+01
(PID.TID 0000.0001) %MON exf_vwind_mean               =   8.6210658659205E-01
(PID.TID 0000.0001) %MON exf_vwind_sd                 =   5.1764059050903E+00
(PID.TID 0000.0001) %MON exf_vwind_del2               =   1.1695220247582E-03
(PID.TID 0000.0001) %MON exf_wspeed_max               =   2.0268750795068E+01
(PID.TID 0000.0001) %MON exf_wspeed_min               =   7.7751979269519E-03
(PID.TID 0000.0001) %MON exf_wspeed_mean              =   7.7100599326062E+00
(PID.TID 0000.0001) %MON exf_wspeed_sd                =   4.3231646249511E+00
(PID.TID 0000.0001) %MON exf_wspeed_del2              =   1.9708991377374E-03
(PID.TID 0000.0001) %MON exf_atemp_max                =   2.9815585443142E+02
(PID.TID 0000.0001) %MON exf_atemp_min                =   2.7429575467771E+02
(PID.TID 0000.0001) %MON exf_atemp_mean               =   2.9067093470555E+02
(PID.TID 0000.0001) %MON exf_atemp_sd                 =   3.9450554917704E+00
(PID.TID 0000.0001) %MON exf_atemp_del2               =   3.8809531025252E-03
(PID.TID 0000.0001) %MON exf_aqh_max                  =   1.6752607817665E-02
(PID.TID 0000.0001) %MON exf_aqh_min                  =   2.7171169981137E-03
(PID.TID 0000.0001) %MON exf_aqh_mean                 =   9.4168909738609E-03
(PID.TID 0000.0001) %MON exf_aqh_sd                   =   2.8751455881814E-03
(PID.TID 0000.0001) %MON exf_aqh_del2                 =   2.1251128917364E-06
(PID.TID 0000.0001) %MON exf_lwflux_max               =   1.5340373217713E+02
(PID.TID 0000.0001) %MON exf_lwflux_min               =  -3.1012088816765E+00
(PID.TID 0000.0001) %MON exf_lwflux_mean              =   6.5383664554625E+01
(PID.TID 0000.0001) %MON exf_lwflux_sd                =   2.6621725970847E+01
(PID.TID 0000.0001) %MON exf_lwflux_del2              =   1.5459856625863E-02
(PID.TID 0000.0001) %MON exf_evap_max                 =   2.8325073368106E-07
(PID.TID 0000.0001) %MON exf_evap_min                 =  -9.7200981153320E-08
(PID.TID 0000.0001) %MON exf_evap_mean                =   5.9257022889246E-08
(PID.TID 0000.0001) %MON exf_evap_sd                  =   4.2048502853940E-08
(PID.TID 0000.0001) %MON exf_evap_del2                =   1.6370032372238E-11
(PID.TID 0000.0001) %MON exf_precip_max               =   1.9335577690933E-06
(PID.TID 0000.0001) %MON exf_precip_min               =   0.0000000000000E+00
(PID.TID 0000.0001) %MON exf_precip_mean              =   4.0843717995776E-08
(PID.TID 0000.0001) %MON exf_precip_sd                =   1.3798294822683E-07
(PID.TID 0000.0001) %MON exf_precip_del2              =   3.5021931552064E-11
(PID.TID 0000.0001) %MON exf_swflux_max               =   0.0000000000000E+00
(PID.TID 0000.0001) %MON exf_swflux_min               =   0.0000000000000E+00
(PID.TID 0000.0001) %MON exf_swflux_mean              =   0.0000000000000E+00
(PID.TID 0000.0001) %MON exf_swflux_sd                =   0.0000000000000E+00
(PID.TID 0000.0001) %MON exf_swflux_del2              =   0.0000000000000E+00
(PID.TID 0000.0001) %MON exf_swdown_max               =   0.0000000000000E+00
(PID.TID 0000.0001) %MON exf_swdown_min               =   0.0000000000000E+00
(PID.TID 0000.0001) %MON exf_swdown_mean              =   0.0000000000000E+00
(PID.TID 0000.0001) %MON exf_swdown_sd                =   0.0000000000000E+00
(PID.TID 0000.0001) %MON exf_swdown_del2              =   0.0000000000000E+00
(PID.TID 0000.0001) %MON exf_lwdown_max               =   4.1831268048121E+02
(PID.TID 0000.0001) %MON exf_lwdown_min               =   2.2402296162562E+02
(PID.TID 0000.0001) %MON exf_lwdown_mean              =   3.4965138987760E+02
(PID.TID 0000.0001) %MON exf_lwdown_sd                =   3.1755010022009E+01
(PID.TID 0000.0001) %MON exf_lwdown_del2              =   7.6679927332961E-02
(PID.TID 0000.0001) %MON exf_apressure_max            =   1.0280576882417E+05
(PID.TID 0000.0001) %MON exf_apressure_min            =   1.0001483343541E+05
(PID.TID 0000.0001) %MON exf_apressure_mean           =   1.0216685186254E+05
(PID.TID 0000.0001) %MON exf_apressure_sd             =   4.9875939384114E+02
(PID.TID 0000.0001) %MON exf_apressure_del2           =   2.2357440027017E+01
(PID.TID 0000.0001) %MON exf_runoff_max               =   4.4374798712073E-08
(PID.TID 0000.0001) %MON exf_runoff_min               =   0.0000000000000E+00
(PID.TID 0000.0001) %MON exf_runoff_mean              =   1.5884795719908E-09
(PID.TID 0000.0001) %MON exf_runoff_sd                =   5.3901959599983E-09
(PID.TID 0000.0001) %MON exf_runoff_del2              =   1.2741189756369E-12
(PID.TID 0000.0001) // =======================================================
(PID.TID 0000.0001) // End MONITOR EXF statistics
(PID.TID 0000.0001) // =======================================================
 cg2d: Sum(rhs),rhsMax =   1.33781218030144E+03  7.83611135002794E-02
(PID.TID 0000.0001)      cg2d_init_res =   1.62321071357112E+00
(PID.TID 0000.0001)      cg2d_iters(min,last) =      -1     313
(PID.TID 0000.0001)      cg2d_last_res =   6.52373565943228E-12
(PID.TID 0000.0001) // =======================================================
(PID.TID 0000.0001) // Begin MONITOR dynamic field statistics
(PID.TID 0000.0001) // =======================================================
(PID.TID 0000.0001) %MON time_tsnumber                =                    11
(PID.TID 0000.0001) %MON time_secondsf                =   2.6400000000000E+03
(PID.TID 0000.0001) %MON dynstat_eta_max              =   9.5058758400625E-01
(PID.TID 0000.0001) %MON dynstat_eta_min              =  -1.2800206370772E+00
(PID.TID 0000.0001) %MON dynstat_eta_mean             =  -4.5495114061326E-02
(PID.TID 0000.0001) %MON dynstat_eta_sd               =   2.5067643726479E-01
(PID.TID 0000.0001) %MON dynstat_eta_del2             =   2.3566134742864E-06
(PID.TID 0000.0001) %MON dynstat_uvel_max             =   1.2857249886644E+00
(PID.TID 0000.0001) %MON dynstat_uvel_min             =  -7.0064350869612E-01
(PID.TID 0000.0001) %MON dynstat_uvel_mean            =   1.9580465174263E-03
(PID.TID 0000.0001) %MON dynstat_uvel_sd              =   5.2267937984147E-02
(PID.TID 0000.0001) %MON dynstat_uvel_del2            =   5.2127356151626E-07
(PID.TID 0000.0001) %MON dynstat_vvel_max             =   2.4892628007229E+00
(PID.TID 0000.0001) %MON dynstat_vvel_min             =  -9.1892031931670E-01
(PID.TID 0000.0001) %MON dynstat_vvel_mean            =  -4.1860279261441E-03
(PID.TID 0000.0001) %MON dynstat_vvel_sd              =   4.9237092459734E-02
(PID.TID 0000.0001) %MON dynstat_vvel_del2            =   4.7646282706353E-07
(PID.TID 0000.0001) %MON dynstat_wvel_max             =   3.4220605016215E-02
(PID.TID 0000.0001) %MON dynstat_wvel_min             =  -3.1210485710904E-02
(PID.TID 0000.0001) %MON dynstat_wvel_mean            =  -1.4949646400671E-05
(PID.TID 0000.0001) %MON dynstat_wvel_sd              =   6.0487746989401E-04
(PID.TID 0000.0001) %MON dynstat_wvel_del2            =   7.4114233892400E-08
(PID.TID 0000.0001) %MON dynstat_theta_max            =   2.6142428120782E+01
(PID.TID 0000.0001) %MON dynstat_theta_min            =   1.4688649034785E+00
(PID.TID 0000.0001) %MON dynstat_theta_mean           =   5.5098644185516E+00
(PID.TID 0000.0001) %MON dynstat_theta_sd             =   4.7733200217389E+00
(PID.TID 0000.0001) %MON dynstat_theta_del2           =   4.0291763118809E-06
(PID.TID 0000.0001) %MON dynstat_salt_max             =   3.9156237713566E+01
(PID.TID 0000.0001) %MON dynstat_salt_min             =   3.3098070108678E+01
(PID.TID 0000.0001) %MON dynstat_salt_mean            =   3.5173365979848E+01
(PID.TID 0000.0001) %MON dynstat_salt_sd              =   3.7891312327631E-01
(PID.TID 0000.0001) %MON dynstat_salt_del2            =   5.2375145315463E-07
(PID.TID 0000.0001) %MON dynstat_sst_max              =   2.6138817155050E+01
(PID.TID 0000.0001) %MON dynstat_sst_min              =   3.9355737067088E+00
(PID.TID 0000.0001) %MON dynstat_sst_mean             =   1.9637329524491E+01
(PID.TID 0000.0001) %MON dynstat_sst_sd               =   3.6391419362592E+00
(PID.TID 0000.0001) %MON dynstat_sst_del2             =   1.9180586724839E-05
(PID.TID 0000.0001) %MON dynstat_sss_max              =   3.7336145461734E+01
(PID.TID 0000.0001) %MON dynstat_sss_min              =   3.3098070108678E+01
(PID.TID 0000.0001) %MON dynstat_sss_mean             =   3.5868362983555E+01
(PID.TID 0000.0001) %MON dynstat_sss_sd               =   4.8718983007987E-01
(PID.TID 0000.0001) %MON dynstat_sss_del2             =   4.9239659846456E-06
(PID.TID 0000.0001) %MON forcing_qnet_max             =   1.1911599362179E+03
(PID.TID 0000.0001) %MON forcing_qnet_min             =  -2.9604769350356E+02
(PID.TID 0000.0001) %MON forcing_qnet_mean            =   2.4163185703258E+02
(PID.TID 0000.0001) %MON forcing_qnet_sd              =   1.4215034414385E+02
(PID.TID 0000.0001) %MON forcing_qnet_del2            =   1.6659120775389E-03
(PID.TID 0000.0001) %MON forcing_qsw_max              =   0.0000000000000E+00
(PID.TID 0000.0001) %MON forcing_qsw_min              =   0.0000000000000E+00
(PID.TID 0000.0001) %MON forcing_qsw_mean             =   0.0000000000000E+00
(PID.TID 0000.0001) %MON forcing_qsw_sd               =   0.0000000000000E+00
(PID.TID 0000.0001) %MON forcing_qsw_del2             =   0.0000000000000E+00
(PID.TID 0000.0001) %MON forcing_empmr_max            =   2.5724496611455E-04
(PID.TID 0000.0001) %MON forcing_empmr_min            =  -1.7560217374587E-03
(PID.TID 0000.0001) %MON forcing_empmr_mean           =   1.6824825321479E-05
(PID.TID 0000.0001) %MON forcing_empmr_sd             =   1.3268215502259E-04
(PID.TID 0000.0001) %MON forcing_empmr_del2           =   2.9973452036591E-09
(PID.TID 0000.0001) %MON forcing_fu_max               =   8.6616494418396E-01
(PID.TID 0000.0001) %MON forcing_fu_min               =  -4.0280200303005E-01
(PID.TID 0000.0001) %MON forcing_fu_mean              =   6.3528015314645E-02
(PID.TID 0000.0001) %MON forcing_fu_sd                =   1.5507217683290E-01
(PID.TID 0000.0001) %MON forcing_fu_del2              =   3.5173919880885E-07
(PID.TID 0000.0001) %MON forcing_fv_max               =   3.9420282619515E-01
(PID.TID 0000.0001) %MON forcing_fv_min               =  -5.6876828188108E-01
(PID.TID 0000.0001) %MON forcing_fv_mean              =   1.0860077565902E-02
(PID.TID 0000.0001) %MON forcing_fv_sd                =   1.0170729977774E-01
(PID.TID 0000.0001) %MON forcing_fv_del2              =   2.6205774965753E-07
(PID.TID 0000.0001) %MON trAdv_CFL_u_max              =   7.8005915932412E-02
(PID.TID 0000.0001) %MON trAdv_CFL_v_max              =   1.5728010996675E-01
(PID.TID 0000.0001) %MON trAdv_CFL_w_max              =   5.1061889248262E-01
(PID.TID 0000.0001) %MON advcfl_uvel_max              =   7.8005914870291E-02
(PID.TID 0000.0001) %MON advcfl_vvel_max              =   1.5732587240546E-01
(PID.TID 0000.0001) %MON advcfl_wvel_max              =   5.0210857760791E-01
(PID.TID 0000.0001) %MON advcfl_W_hf_max              =   5.1061889248262E-01
(PID.TID 0000.0001) %MON pe_b_mean                    =  -1.0258738744555E-03
(PID.TID 0000.0001) %MON ke_max                       =   2.8065466436550E+00
(PID.TID 0000.0001) %MON ke_mean                      =   2.5697087928617E-03
(PID.TID 0000.0001) %MON ke_vol                       =   4.5818637279720E+16
(PID.TID 0000.0001) %MON vort_r_min                   =  -5.1778859147860E-04
(PID.TID 0000.0001) %MON vort_r_max                   =   7.1667098799509E-04
(PID.TID 0000.0001) %MON vort_a_mean                  =   8.2147623060782E-05
(PID.TID 0000.0001) %MON vort_a_sd                    =   1.0145155658131E-05
(PID.TID 0000.0001) %MON vort_p_mean                  =   8.4848844369001E-05
(PID.TID 0000.0001) %MON vort_p_sd                    =   3.4976447046774E-05
(PID.TID 0000.0001) %MON surfExpan_theta_mean         =  -3.5588867416216E-04
(PID.TID 0000.0001) %MON surfExpan_salt_mean          =  -9.4371947180418E-04
(PID.TID 0000.0001) // =======================================================
(PID.TID 0000.0001) // End MONITOR dynamic field statistics
(PID.TID 0000.0001) // =======================================================
(PID.TID 0000.0001) // =======================================================
(PID.TID 0000.0001) // Begin OBCS MONITOR field statistics
(PID.TID 0000.0001) // =======================================================
(PID.TID 0000.0001) %MON obc_N_vVel_max               =   6.9462511267569E-01
(PID.TID 0000.0001) %MON obc_N_vVel_min               =  -3.2386652640102E-01
(PID.TID 0000.0001) %MON obc_N_vVel_mean              =   1.3498598564145E-02
(PID.TID 0000.0001) %MON obc_N_vVel_sd                =   6.4587781615047E-02
(PID.TID 0000.0001) %MON obc_N_vVel_Int               =   1.9323357857342E+08
(PID.TID 0000.0001) %MON obc_S_vVel_max               =   2.4892628007229E+00
(PID.TID 0000.0001) %MON obc_S_vVel_min               =  -2.6302812209586E-01
(PID.TID 0000.0001) %MON obc_S_vVel_mean              =  -3.5591813948131E-03
(PID.TID 0000.0001) %MON obc_S_vVel_sd                =   3.6260055291612E-02
(PID.TID 0000.0001) %MON obc_S_vVel_Int               =  -1.0835180212003E+08
(PID.TID 0000.0001) %MON obc_N_theta_max              =   1.6389891921106E+01
(PID.TID 0000.0001) %MON obc_N_theta_min              =   1.8895912667048E+00
(PID.TID 0000.0001) %MON obc_N_theta_mean             =   5.1588992762384E+00
(PID.TID 0000.0001) %MON obc_N_theta_sd               =   3.4826317304761E+00
(PID.TID 0000.0001) %MON obc_S_theta_max              =   2.5543811072233E+01
(PID.TID 0000.0001) %MON obc_S_theta_min              =   1.4633000000465E+00
(PID.TID 0000.0001) %MON obc_S_theta_mean             =   5.4595489249409E+00
(PID.TID 0000.0001) %MON obc_S_theta_sd               =   5.3558944527081E+00
(PID.TID 0000.0001) %MON obc_N_salt_max               =   3.5910863155963E+01
(PID.TID 0000.0001) %MON obc_N_salt_min               =   3.3295074599012E+01
(PID.TID 0000.0001) %MON obc_N_salt_mean              =   3.5114561060497E+01
(PID.TID 0000.0001) %MON obc_N_salt_sd                =   3.0984801722386E-01
(PID.TID 0000.0001) %MON obc_S_salt_max               =   3.7318270902396E+01
(PID.TID 0000.0001) %MON obc_S_salt_min               =   3.4844694888241E+01
(PID.TID 0000.0001) %MON obc_S_salt_mean              =   3.5168372147751E+01
(PID.TID 0000.0001) %MON obc_S_salt_sd                =   4.5716724612664E-01
(PID.TID 0000.0001) // =======================================================
(PID.TID 0000.0001) // End OBCS MONITOR field statistics
(PID.TID 0000.0001) // =======================================================
(PID.TID 0000.0001) // =======================================================
(PID.TID 0000.0001) // Begin MONITOR EXF statistics
(PID.TID 0000.0001) // =======================================================
(PID.TID 0000.0001) %MON exf_tsnumber                 =                    11
(PID.TID 0000.0001) %MON exf_time_sec                 =   2.6400000000000E+03
(PID.TID 0000.0001) %MON exf_ustress_max              =   8.7862434683290E-01
(PID.TID 0000.0001) %MON exf_ustress_min              =  -4.0040397823159E-01
(PID.TID 0000.0001) %MON exf_ustress_mean             =   6.3638777759665E-02
(PID.TID 0000.0001) %MON exf_ustress_sd               =   1.5519594279135E-01
(PID.TID 0000.0001) %MON exf_ustress_del2             =   4.0095032273714E-07
(PID.TID 0000.0001) %MON exf_vstress_max              =   3.9733353111174E-01
(PID.TID 0000.0001) %MON exf_vstress_min              =  -5.6583488576512E-01
(PID.TID 0000.0001) %MON exf_vstress_mean             =   1.0940752825527E-02
(PID.TID 0000.0001) %MON exf_vstress_sd               =   1.0176009059804E-01
(PID.TID 0000.0001) %MON exf_vstress_del2             =   2.9485627500865E-07
(PID.TID 0000.0001) %MON exf_hflux_max                =   1.1798909250090E+03
(PID.TID 0000.0001) %MON exf_hflux_min                =  -2.9385936897475E+02
(PID.TID 0000.0001) %MON exf_hflux_mean               =   2.3956692685787E+02
(PID.TID 0000.0001) %MON exf_hflux_sd                 =   1.4061043349014E+02
(PID.TID 0000.0001) %MON exf_hflux_del2               =   6.2622088192944E-02
(PID.TID 0000.0001) %MON exf_sflux_max                =   2.5797436405191E-07
(PID.TID 0000.0001) %MON exf_sflux_min                =  -1.7748318636706E-06
(PID.TID 0000.0001) %MON exf_sflux_mean               =   1.6590764478544E-08
(PID.TID 0000.0001) %MON exf_sflux_sd                 =   1.3237828418691E-07
(PID.TID 0000.0001) %MON exf_sflux_del2               =   3.2459759623559E-11
(PID.TID 0000.0001) %MON exf_uwind_max                =   1.9949285269559E+01
(PID.TID 0000.0001) %MON exf_uwind_min                =  -1.4818376376625E+01
(PID.TID 0000.0001) %MON exf_uwind_mean               =   2.4829246732748E+00
(PID.TID 0000.0001) %MON exf_uwind_sd                 =   6.6673503127304E+00
(PID.TID 0000.0001) %MON exf_uwind_del2               =   1.5875995993466E-03
(PID.TID 0000.0001) %MON exf_vwind_max                =   1.4523446613265E+01
(PID.TID 0000.0001) %MON exf_vwind_min                =  -1.2804880676521E+01
(PID.TID 0000.0001) %MON exf_vwind_mean               =   8.6380472837757E-01
(PID.TID 0000.0001) %MON exf_vwind_sd                 =   5.1783773846660E+00
(PID.TID 0000.0001) %MON exf_vwind_del2               =   1.1696728220147E-03
(PID.TID 0000.0001) %MON exf_wspeed_max               =   2.0257116417916E+01
(PID.TID 0000.0001) %MON exf_wspeed_min               =   4.6379599104541E-03
(PID.TID 0000.0001) %MON exf_wspeed_mean              =   7.7110243400668E+00
(PID.TID 0000.0001) %MON exf_wspeed_sd                =   4.3266996313019E+00
(PID.TID 0000.0001) %MON exf_wspeed_del2              =   1.9717665915850E-03
(PID.TID 0000.0001) %MON exf_atemp_max                =   2.9815365710274E+02
(PID.TID 0000.0001) %MON exf_atemp_min                =   2.7427015333087E+02
(PID.TID 0000.0001) %MON exf_atemp_mean               =   2.9066781349965E+02
(PID.TID 0000.0001) %MON exf_atemp_sd                 =   3.9458014047943E+00
(PID.TID 0000.0001) %MON exf_atemp_del2               =   3.8803426483344E-03
(PID.TID 0000.0001) %MON exf_aqh_max                  =   1.6745621567335E-02
(PID.TID 0000.0001) %MON exf_aqh_min                  =   2.7148222887495E-03
(PID.TID 0000.0001) %MON exf_aqh_mean                 =   9.4157028210143E-03
(PID.TID 0000.0001) %MON exf_aqh_sd                   =   2.8761931402288E-03
(PID.TID 0000.0001) %MON exf_aqh_del2                 =   2.1248015539737E-06
(PID.TID 0000.0001) %MON exf_lwflux_max               =   1.5367531615373E+02
(PID.TID 0000.0001) %MON exf_lwflux_min               =  -1.6583079637981E+00
(PID.TID 0000.0001) %MON exf_lwflux_mean              =   6.5365630559155E+01
(PID.TID 0000.0001) %MON exf_lwflux_sd                =   2.6559251709319E+01
(PID.TID 0000.0001) %MON exf_lwflux_del2              =   1.5455196543886E-02
(PID.TID 0000.0001) %MON exf_evap_max                 =   2.8512507853324E-07
(PID.TID 0000.0001) %MON exf_evap_min                 =  -9.8058098701516E-08
(PID.TID 0000.0001) %MON exf_evap_mean                =   5.9266097361200E-08
(PID.TID 0000.0001) %MON exf_evap_sd                  =   4.2073728696878E-08
(PID.TID 0000.0001) %MON exf_evap_del2                =   1.6379859502166E-11
(PID.TID 0000.0001) %MON exf_precip_max               =   1.9530084605844E-06
(PID.TID 0000.0001) %MON exf_precip_min               =   0.0000000000000E+00
(PID.TID 0000.0001) %MON exf_precip_mean              =   4.1086853310665E-08
(PID.TID 0000.0001) %MON exf_precip_sd                =   1.3784056296284E-07
(PID.TID 0000.0001) %MON exf_precip_del2              =   3.5267194958180E-11
(PID.TID 0000.0001) %MON exf_swflux_max               =   0.0000000000000E+00
(PID.TID 0000.0001) %MON exf_swflux_min               =   0.0000000000000E+00
(PID.TID 0000.0001) %MON exf_swflux_mean              =   0.0000000000000E+00
(PID.TID 0000.0001) %MON exf_swflux_sd                =   0.0000000000000E+00
(PID.TID 0000.0001) %MON exf_swflux_del2              =   0.0000000000000E+00
(PID.TID 0000.0001) %MON exf_swdown_max               =   0.0000000000000E+00
(PID.TID 0000.0001) %MON exf_swdown_min               =   0.0000000000000E+00
(PID.TID 0000.0001) %MON exf_swdown_mean              =   0.0000000000000E+00
(PID.TID 0000.0001) %MON exf_swdown_sd                =   0.0000000000000E+00
(PID.TID 0000.0001) %MON exf_swdown_del2              =   0.0000000000000E+00
(PID.TID 0000.0001) %MON exf_lwdown_max               =   4.1834380446450E+02
(PID.TID 0000.0001) %MON exf_lwdown_min               =   2.2446253938019E+02
(PID.TID 0000.0001) %MON exf_lwdown_mean              =   3.4966588105516E+02
(PID.TID 0000.0001) %MON exf_lwdown_sd                =   3.1662575468583E+01
(PID.TID 0000.0001) %MON exf_lwdown_del2              =   7.6676438741032E-02
(PID.TID 0000.0001) %MON exf_apressure_max            =   1.0280887954977E+05
(PID.TID 0000.0001) %MON exf_apressure_min            =   1.0001557374934E+05
(PID.TID 0000.0001) %MON exf_apressure_mean           =   1.0216762916888E+05
(PID.TID 0000.0001) %MON exf_apressure_sd             =   4.9875562807510E+02
(PID.TID 0000.0001) %MON exf_apressure_del2           =   2.2357627756461E+01
(PID.TID 0000.0001) %MON exf_runoff_max               =   4.4374798712073E-08
(PID.TID 0000.0001) %MON exf_runoff_min               =   0.0000000000000E+00
(PID.TID 0000.0001) %MON exf_runoff_mean              =   1.5884795719908E-09
(PID.TID 0000.0001) %MON exf_runoff_sd                =   5.3901959599983E-09
(PID.TID 0000.0001) %MON exf_runoff_del2              =   1.2741189756369E-12
(PID.TID 0000.0001) // =======================================================
(PID.TID 0000.0001) // End MONITOR EXF statistics
(PID.TID 0000.0001) // =======================================================
 cg2d: Sum(rhs),rhsMax =   1.53870977442443E+03  8.01669699464287E-02
(PID.TID 0000.0001)      cg2d_init_res =   1.52891360840378E+00
(PID.TID 0000.0001)      cg2d_iters(min,last) =      -1     312
(PID.TID 0000.0001)      cg2d_last_res =   6.69452443641978E-12
(PID.TID 0000.0001) // =======================================================
(PID.TID 0000.0001) // Begin MONITOR dynamic field statistics
(PID.TID 0000.0001) // =======================================================
(PID.TID 0000.0001) %MON time_tsnumber                =                    12
(PID.TID 0000.0001) %MON time_secondsf                =   2.8800000000000E+03
(PID.TID 0000.0001) %MON dynstat_eta_max              =   8.4150669977047E-01
(PID.TID 0000.0001) %MON dynstat_eta_min              =  -1.1245234661133E+00
(PID.TID 0000.0001) %MON dynstat_eta_mean             =  -5.2327058854363E-02
(PID.TID 0000.0001) %MON dynstat_eta_sd               =   2.6039952766937E-01
(PID.TID 0000.0001) %MON dynstat_eta_del2             =   2.3330056357837E-06
(PID.TID 0000.0001) %MON dynstat_uvel_max             =   1.2794078150967E+00
(PID.TID 0000.0001) %MON dynstat_uvel_min             =  -7.0055900741696E-01
(PID.TID 0000.0001) %MON dynstat_uvel_mean            =   1.7273156907217E-03
(PID.TID 0000.0001) %MON dynstat_uvel_sd              =   5.2268336343404E-02
(PID.TID 0000.0001) %MON dynstat_uvel_del2            =   5.2962105265618E-07
(PID.TID 0000.0001) %MON dynstat_vvel_max             =   2.5498895951784E+00
(PID.TID 0000.0001) %MON dynstat_vvel_min             =  -9.1866946387578E-01
(PID.TID 0000.0001) %MON dynstat_vvel_mean            =  -4.4170843893130E-03
(PID.TID 0000.0001) %MON dynstat_vvel_sd              =   4.9323604294821E-02
(PID.TID 0000.0001) %MON dynstat_vvel_del2            =   4.8386256422607E-07
(PID.TID 0000.0001) %MON dynstat_wvel_max             =   3.5548927315949E-02
(PID.TID 0000.0001) %MON dynstat_wvel_min             =  -3.1933343212626E-02
(PID.TID 0000.0001) %MON dynstat_wvel_mean            =  -1.6058314563893E-05
(PID.TID 0000.0001) %MON dynstat_wvel_sd              =   6.0698909898327E-04
(PID.TID 0000.0001) %MON dynstat_wvel_del2            =   7.2463143506674E-08
(PID.TID 0000.0001) %MON dynstat_theta_max            =   2.6144134817315E+01
(PID.TID 0000.0001) %MON dynstat_theta_min            =   1.4688650790902E+00
(PID.TID 0000.0001) %MON dynstat_theta_mean           =   5.5098743355152E+00
(PID.TID 0000.0001) %MON dynstat_theta_sd             =   4.7733170413585E+00
(PID.TID 0000.0001) %MON dynstat_theta_del2           =   4.0316463816859E-06
(PID.TID 0000.0001) %MON dynstat_salt_max             =   3.9152189483150E+01
(PID.TID 0000.0001) %MON dynstat_salt_min             =   3.3099119060036E+01
(PID.TID 0000.0001) %MON dynstat_salt_mean            =   3.5173366187355E+01
(PID.TID 0000.0001) %MON dynstat_salt_sd              =   3.7891401488484E-01
(PID.TID 0000.0001) %MON dynstat_salt_del2            =   5.2637362139698E-07
(PID.TID 0000.0001) %MON dynstat_sst_max              =   2.6140359776569E+01
(PID.TID 0000.0001) %MON dynstat_sst_min              =   3.9215425318206E+00
(PID.TID 0000.0001) %MON dynstat_sst_mean             =   1.9636640533308E+01
(PID.TID 0000.0001) %MON dynstat_sst_sd               =   3.6391790113841E+00
(PID.TID 0000.0001) %MON dynstat_sst_del2             =   1.9216495191092E-05
(PID.TID 0000.0001) %MON dynstat_sss_max              =   3.7336222050622E+01
(PID.TID 0000.0001) %MON dynstat_sss_min              =   3.3099119060036E+01
(PID.TID 0000.0001) %MON dynstat_sss_mean             =   3.5868392797766E+01
(PID.TID 0000.0001) %MON dynstat_sss_sd               =   4.8718646038330E-01
(PID.TID 0000.0001) %MON dynstat_sss_del2             =   4.9175282186951E-06
(PID.TID 0000.0001) %MON forcing_qnet_max             =   1.1980498863662E+03
(PID.TID 0000.0001) %MON forcing_qnet_min             =  -2.9874042733210E+02
(PID.TID 0000.0001) %MON forcing_qnet_mean            =   2.4164992779809E+02
(PID.TID 0000.0001) %MON forcing_qnet_sd              =   1.4229413972319E+02
(PID.TID 0000.0001) %MON forcing_qnet_del2            =   1.6662582022496E-03
(PID.TID 0000.0001) %MON forcing_qsw_max              =   0.0000000000000E+00
(PID.TID 0000.0001) %MON forcing_qsw_min              =   0.0000000000000E+00
(PID.TID 0000.0001) %MON forcing_qsw_mean             =   0.0000000000000E+00
(PID.TID 0000.0001) %MON forcing_qsw_sd               =   0.0000000000000E+00
(PID.TID 0000.0001) %MON forcing_qsw_del2             =   0.0000000000000E+00
(PID.TID 0000.0001) %MON forcing_empmr_max            =   2.5797436405191E-04
(PID.TID 0000.0001) %MON forcing_empmr_min            =  -1.7748318636706E-03
(PID.TID 0000.0001) %MON forcing_empmr_mean           =   1.6590764478544E-05
(PID.TID 0000.0001) %MON forcing_empmr_sd             =   1.3237828418691E-04
(PID.TID 0000.0001) %MON forcing_empmr_del2           =   2.8534492264157E-09
(PID.TID 0000.0001) %MON forcing_fu_max               =   8.7828261261338E-01
(PID.TID 0000.0001) %MON forcing_fu_min               =  -4.0039802627938E-01
(PID.TID 0000.0001) %MON forcing_fu_mean              =   6.3699555492454E-02
(PID.TID 0000.0001) %MON forcing_fu_sd                =   1.5525636056310E-01
(PID.TID 0000.0001) %MON forcing_fu_del2              =   3.6215762551558E-07
(PID.TID 0000.0001) %MON forcing_fv_max               =   3.9730414720635E-01
(PID.TID 0000.0001) %MON forcing_fv_min               =  -5.7023738884081E-01
(PID.TID 0000.0001) %MON forcing_fv_mean              =   1.0923147285033E-02
(PID.TID 0000.0001) %MON forcing_fv_sd                =   1.0189220956805E-01
(PID.TID 0000.0001) %MON forcing_fv_del2              =   2.7380031366683E-07
(PID.TID 0000.0001) %MON trAdv_CFL_u_max              =   7.7622648192732E-02
(PID.TID 0000.0001) %MON trAdv_CFL_v_max              =   1.6111071752499E-01
(PID.TID 0000.0001) %MON trAdv_CFL_w_max              =   5.2035833472744E-01
(PID.TID 0000.0001) %MON advcfl_uvel_max              =   7.7622647135829E-02
(PID.TID 0000.0001) %MON advcfl_vvel_max              =   1.6115759452258E-01
(PID.TID 0000.0001) %MON advcfl_wvel_max              =   5.1168569581532E-01
(PID.TID 0000.0001) %MON advcfl_W_hf_max              =   5.2035833472744E-01
(PID.TID 0000.0001) %MON pe_b_mean                    =  -1.1854462323342E-03
(PID.TID 0000.0001) %MON ke_max                       =   2.9505852752377E+00
(PID.TID 0000.0001) %MON ke_mean                      =   2.5745301560121E-03
(PID.TID 0000.0001) %MON ke_vol                       =   4.5818637279720E+16
(PID.TID 0000.0001) %MON vort_r_min                   =  -5.1795877471923E-04
(PID.TID 0000.0001) %MON vort_r_max                   =   7.4282654340178E-04
(PID.TID 0000.0001) %MON vort_a_mean                  =   8.2147622239582E-05
(PID.TID 0000.0001) %MON vort_a_sd                    =   1.0148597226968E-05
(PID.TID 0000.0001) %MON vort_p_mean                  =   8.4848843520798E-05
(PID.TID 0000.0001) %MON vort_p_sd                    =   3.4979222129807E-05
(PID.TID 0000.0001) %MON surfExpan_theta_mean         =  -3.9737380362712E-04
(PID.TID 0000.0001) %MON surfExpan_salt_mean          =  -1.0085505056511E-03
(PID.TID 0000.0001) // =======================================================
(PID.TID 0000.0001) // End MONITOR dynamic field statistics
(PID.TID 0000.0001) // =======================================================
(PID.TID 0000.0001) // =======================================================
(PID.TID 0000.0001) // Begin OBCS MONITOR field statistics
(PID.TID 0000.0001) // =======================================================
(PID.TID 0000.0001) %MON obc_N_vVel_max               =   6.9445057130833E-01
(PID.TID 0000.0001) %MON obc_N_vVel_min               =  -3.2418597803533E-01
(PID.TID 0000.0001) %MON obc_N_vVel_mean              =   1.3447344925231E-02
(PID.TID 0000.0001) %MON obc_N_vVel_sd                =   6.4566341463581E-02
(PID.TID 0000.0001) %MON obc_N_vVel_Int               =   1.9249987840335E+08
(PID.TID 0000.0001) %MON obc_S_vVel_max               =   2.5498895951784E+00
(PID.TID 0000.0001) %MON obc_S_vVel_min               =  -2.6309677804153E-01
(PID.TID 0000.0001) %MON obc_S_vVel_mean              =  -4.2444228596303E-03
(PID.TID 0000.0001) %MON obc_S_vVel_sd                =   3.6332683878914E-02
(PID.TID 0000.0001) %MON obc_S_vVel_Int               =  -1.2921253928519E+08
(PID.TID 0000.0001) %MON obc_N_theta_max              =   1.6389803818919E+01
(PID.TID 0000.0001) %MON obc_N_theta_min              =   1.8895913157701E+00
(PID.TID 0000.0001) %MON obc_N_theta_mean             =   5.1588918920883E+00
(PID.TID 0000.0001) %MON obc_N_theta_sd               =   3.4826224400858E+00
(PID.TID 0000.0001) %MON obc_S_theta_max              =   2.5543708323453E+01
(PID.TID 0000.0001) %MON obc_S_theta_min              =   1.4633003963337E+00
(PID.TID 0000.0001) %MON obc_S_theta_mean             =   5.4595481199164E+00
(PID.TID 0000.0001) %MON obc_S_theta_sd               =   5.3558905817403E+00
(PID.TID 0000.0001) %MON obc_N_salt_max               =   3.5910862747600E+01
(PID.TID 0000.0001) %MON obc_N_salt_min               =   3.3295080101645E+01
(PID.TID 0000.0001) %MON obc_N_salt_mean              =   3.5114560764510E+01
(PID.TID 0000.0001) %MON obc_N_salt_sd                =   3.0984789812930E-01
(PID.TID 0000.0001) %MON obc_S_salt_max               =   3.7318264018012E+01
(PID.TID 0000.0001) %MON obc_S_salt_min               =   3.4844694940461E+01
(PID.TID 0000.0001) %MON obc_S_salt_mean              =   3.5168372075834E+01
(PID.TID 0000.0001) %MON obc_S_salt_sd                =   4.5716689510142E-01
(PID.TID 0000.0001) // =======================================================
(PID.TID 0000.0001) // End OBCS MONITOR field statistics
(PID.TID 0000.0001) // =======================================================
(PID.TID 0000.0001) // =======================================================
(PID.TID 0000.0001) // Begin MONITOR EXF statistics
(PID.TID 0000.0001) // =======================================================
(PID.TID 0000.0001) %MON exf_tsnumber                 =                    12
(PID.TID 0000.0001) %MON exf_time_sec                 =   2.8800000000000E+03
(PID.TID 0000.0001) %MON exf_ustress_max              =   8.9135849735128E-01
(PID.TID 0000.0001) %MON exf_ustress_min              =  -3.9811111172302E-01
(PID.TID 0000.0001) %MON exf_ustress_mean             =   6.3833685660186E-02
(PID.TID 0000.0001) %MON exf_ustress_sd               =   1.5545165168801E-01
(PID.TID 0000.0001) %MON exf_ustress_del2             =   4.1446356877248E-07
(PID.TID 0000.0001) %MON exf_vstress_max              =   4.0123299543377E-01
(PID.TID 0000.0001) %MON exf_vstress_min              =  -5.6732271282309E-01
(PID.TID 0000.0001) %MON exf_vstress_mean             =   1.1006213436855E-02
(PID.TID 0000.0001) %MON exf_vstress_sd               =   1.0200809103108E-01
(PID.TID 0000.0001) %MON exf_vstress_del2             =   3.0986467686090E-07
(PID.TID 0000.0001) %MON exf_hflux_max                =   1.1867749506191E+03
(PID.TID 0000.0001) %MON exf_hflux_min                =  -2.9657348151452E+02
(PID.TID 0000.0001) %MON exf_hflux_mean               =   2.3962292746329E+02
(PID.TID 0000.0001) %MON exf_hflux_sd                 =   1.4081509458261E+02
(PID.TID 0000.0001) %MON exf_hflux_del2               =   6.2671913435559E-02
(PID.TID 0000.0001) %MON exf_sflux_max                =   2.5873024825452E-07
(PID.TID 0000.0001) %MON exf_sflux_min                =  -1.7936416292046E-06
(PID.TID 0000.0001) %MON exf_sflux_mean               =   1.6364030125197E-08
(PID.TID 0000.0001) %MON exf_sflux_sd                 =   1.3238293636540E-07
(PID.TID 0000.0001) %MON exf_sflux_del2               =   3.2679374667058E-11
(PID.TID 0000.0001) %MON exf_uwind_max                =   2.0064598051954E+01
(PID.TID 0000.0001) %MON exf_uwind_min                =  -1.4793962369173E+01
(PID.TID 0000.0001) %MON exf_uwind_mean               =   2.4848595293697E+00
(PID.TID 0000.0001) %MON exf_uwind_sd                 =   6.6689937604331E+00
(PID.TID 0000.0001) %MON exf_uwind_del2               =   1.5887172898754E-03
(PID.TID 0000.0001) %MON exf_vwind_max                =   1.4590203165306E+01
(PID.TID 0000.0001) %MON exf_vwind_min                =  -1.2822934002574E+01
(PID.TID 0000.0001) %MON exf_vwind_mean               =   8.6547958515049E-01
(PID.TID 0000.0001) %MON exf_vwind_sd                 =   5.1818303125369E+00
(PID.TID 0000.0001) %MON exf_vwind_del2               =   1.1701689691355E-03
(PID.TID 0000.0001) %MON exf_wspeed_max               =   2.0248936288924E+01
(PID.TID 0000.0001) %MON exf_wspeed_min               =   1.2002499052409E-02
(PID.TID 0000.0001) %MON exf_wspeed_mean              =   7.7130768497800E+00
(PID.TID 0000.0001) %MON exf_wspeed_sd                =   4.3311511711115E+00
(PID.TID 0000.0001) %MON exf_wspeed_del2              =   1.9729513436543E-03
(PID.TID 0000.0001) %MON exf_atemp_max                =   2.9815145977406E+02
(PID.TID 0000.0001) %MON exf_atemp_min                =   2.7424455198402E+02
(PID.TID 0000.0001) %MON exf_atemp_mean               =   2.9066469229375E+02
(PID.TID 0000.0001) %MON exf_atemp_sd                 =   3.9466895585715E+00
(PID.TID 0000.0001) %MON exf_atemp_del2               =   3.8797387882586E-03
(PID.TID 0000.0001) %MON exf_aqh_max                  =   1.6738635317005E-02
(PID.TID 0000.0001) %MON exf_aqh_min                  =   2.7125275793852E-03
(PID.TID 0000.0001) %MON exf_aqh_mean                 =   9.4145146681678E-03
(PID.TID 0000.0001) %MON exf_aqh_sd                   =   2.8774128316627E-03
(PID.TID 0000.0001) %MON exf_aqh_del2                 =   2.1245023573126E-06
(PID.TID 0000.0001) %MON exf_lwflux_max               =   1.5394662953794E+02
(PID.TID 0000.0001) %MON exf_lwflux_min               =  -2.5803863441376E-01
(PID.TID 0000.0001) %MON exf_lwflux_mean              =   6.5347775427054E+01
(PID.TID 0000.0001) %MON exf_lwflux_sd                =   2.6515917714193E+01
(PID.TID 0000.0001) %MON exf_lwflux_del2              =   1.5452250149833E-02
(PID.TID 0000.0001) %MON exf_evap_max                 =   2.8719109338677E-07
(PID.TID 0000.0001) %MON exf_evap_min                 =  -9.8931430041831E-08
(PID.TID 0000.0001) %MON exf_evap_mean                =   5.9282498322741E-08
(PID.TID 0000.0001) %MON exf_evap_sd                  =   4.2110536078835E-08
(PID.TID 0000.0001) %MON exf_evap_del2                =   1.6392563673804E-11
(PID.TID 0000.0001) %MON exf_precip_max               =   1.9724591520756E-06
(PID.TID 0000.0001) %MON exf_precip_min               =   0.0000000000000E+00
(PID.TID 0000.0001) %MON exf_precip_mean              =   4.1329988625553E-08
(PID.TID 0000.0001) %MON exf_precip_sd                =   1.3800385713036E-07
(PID.TID 0000.0001) %MON exf_precip_del2              =   3.5594840159680E-11
(PID.TID 0000.0001) %MON exf_swflux_max               =   0.0000000000000E+00
(PID.TID 0000.0001) %MON exf_swflux_min               =   0.0000000000000E+00
(PID.TID 0000.0001) %MON exf_swflux_mean              =   0.0000000000000E+00
(PID.TID 0000.0001) %MON exf_swflux_sd                =   0.0000000000000E+00
(PID.TID 0000.0001) %MON exf_swflux_del2              =   0.0000000000000E+00
(PID.TID 0000.0001) %MON exf_swdown_max               =   0.0000000000000E+00
(PID.TID 0000.0001) %MON exf_swdown_min               =   0.0000000000000E+00
(PID.TID 0000.0001) %MON exf_swdown_mean              =   0.0000000000000E+00
(PID.TID 0000.0001) %MON exf_swdown_sd                =   0.0000000000000E+00
(PID.TID 0000.0001) %MON exf_swdown_del2              =   0.0000000000000E+00
(PID.TID 0000.0001) %MON exf_lwdown_max               =   4.1837492844779E+02
(PID.TID 0000.0001) %MON exf_lwdown_min               =   2.2467592878122E+02
(PID.TID 0000.0001) %MON exf_lwdown_mean              =   3.4968037223272E+02
(PID.TID 0000.0001) %MON exf_lwdown_sd                =   3.1587075242338E+01
(PID.TID 0000.0001) %MON exf_lwdown_del2              =   7.6673309753702E-02
(PID.TID 0000.0001) %MON exf_apressure_max            =   1.0281199027536E+05
(PID.TID 0000.0001) %MON exf_apressure_min            =   1.0001627345309E+05
(PID.TID 0000.0001) %MON exf_apressure_mean           =   1.0216840647522E+05
(PID.TID 0000.0001) %MON exf_apressure_sd             =   4.9879168626282E+02
(PID.TID 0000.0001) %MON exf_apressure_del2           =   2.2357815529035E+01
(PID.TID 0000.0001) %MON exf_runoff_max               =   4.4374798712073E-08
(PID.TID 0000.0001) %MON exf_runoff_min               =   0.0000000000000E+00
(PID.TID 0000.0001) %MON exf_runoff_mean              =   1.5884795719908E-09
(PID.TID 0000.0001) %MON exf_runoff_sd                =   5.3901959599983E-09
(PID.TID 0000.0001) %MON exf_runoff_del2              =   1.2741189756369E-12
(PID.TID 0000.0001) // =======================================================
(PID.TID 0000.0001) // End MONITOR EXF statistics
(PID.TID 0000.0001) // =======================================================
 cg2d: Sum(rhs),rhsMax =   1.75193148624879E+03  8.08133734062671E-02
(PID.TID 0000.0001)      cg2d_init_res =   1.44780934814639E+00
(PID.TID 0000.0001)      cg2d_iters(min,last) =      -1     312
(PID.TID 0000.0001)      cg2d_last_res =   6.39783657048836E-12
(PID.TID 0000.0001) // =======================================================
(PID.TID 0000.0001) // Begin MONITOR dynamic field statistics
(PID.TID 0000.0001) // =======================================================
(PID.TID 0000.0001) %MON time_tsnumber                =                    13
(PID.TID 0000.0001) %MON time_secondsf                =   3.1200000000000E+03
(PID.TID 0000.0001) %MON dynstat_eta_max              =   8.0321994528023E-01
(PID.TID 0000.0001) %MON dynstat_eta_min              =  -1.2245169017373E+00
(PID.TID 0000.0001) %MON dynstat_eta_mean             =  -5.9578111163973E-02
(PID.TID 0000.0001) %MON dynstat_eta_sd               =   2.6938536684441E-01
(PID.TID 0000.0001) %MON dynstat_eta_del2             =   2.3589325898912E-06
(PID.TID 0000.0001) %MON dynstat_uvel_max             =   1.2733102056215E+00
(PID.TID 0000.0001) %MON dynstat_uvel_min             =  -7.9961348453279E-01
(PID.TID 0000.0001) %MON dynstat_uvel_mean            =   1.5017866688787E-03
(PID.TID 0000.0001) %MON dynstat_uvel_sd              =   5.2277964670172E-02
(PID.TID 0000.0001) %MON dynstat_uvel_del2            =   5.3767096714421E-07
(PID.TID 0000.0001) %MON dynstat_vvel_max             =   2.6099963963822E+00
(PID.TID 0000.0001) %MON dynstat_vvel_min             =  -9.1793389434673E-01
(PID.TID 0000.0001) %MON dynstat_vvel_mean            =  -4.6236199989070E-03
(PID.TID 0000.0001) %MON dynstat_vvel_sd              =   4.9393794269857E-02
(PID.TID 0000.0001) %MON dynstat_vvel_del2            =   4.9139832033238E-07
(PID.TID 0000.0001) %MON dynstat_wvel_max             =   3.6887644876294E-02
(PID.TID 0000.0001) %MON dynstat_wvel_min             =  -3.2454745843001E-02
(PID.TID 0000.0001) %MON dynstat_wvel_mean            =  -1.7147359681995E-05
(PID.TID 0000.0001) %MON dynstat_wvel_sd              =   6.0868752148995E-04
(PID.TID 0000.0001) %MON dynstat_wvel_del2            =   7.1151518214129E-08
(PID.TID 0000.0001) %MON dynstat_theta_max            =   2.6145779980202E+01
(PID.TID 0000.0001) %MON dynstat_theta_min            =   1.4688652665771E+00
(PID.TID 0000.0001) %MON dynstat_theta_mean           =   5.5098860378946E+00
(PID.TID 0000.0001) %MON dynstat_theta_sd             =   4.7733166738877E+00
(PID.TID 0000.0001) %MON dynstat_theta_del2           =   4.0332953108111E-06
(PID.TID 0000.0001) %MON dynstat_salt_max             =   3.9147967290830E+01
(PID.TID 0000.0001) %MON dynstat_salt_min             =   3.3100205351728E+01
(PID.TID 0000.0001) %MON dynstat_salt_mean            =   3.5173366501395E+01
(PID.TID 0000.0001) %MON dynstat_salt_sd              =   3.7891497063343E-01
(PID.TID 0000.0001) %MON dynstat_salt_del2            =   5.2862803008053E-07
(PID.TID 0000.0001) %MON dynstat_sst_max              =   2.6141858369513E+01
(PID.TID 0000.0001) %MON dynstat_sst_min              =   3.9075767625297E+00
(PID.TID 0000.0001) %MON dynstat_sst_mean             =   1.9635979765060E+01
(PID.TID 0000.0001) %MON dynstat_sst_sd               =   3.6392148917928E+00
(PID.TID 0000.0001) %MON dynstat_sst_del2             =   1.9259052915006E-05
(PID.TID 0000.0001) %MON dynstat_sss_max              =   3.7336296180453E+01
(PID.TID 0000.0001) %MON dynstat_sss_min              =   3.3100205351728E+01
(PID.TID 0000.0001) %MON dynstat_sss_mean             =   3.5868421104656E+01
(PID.TID 0000.0001) %MON dynstat_sss_sd               =   4.8718207168183E-01
(PID.TID 0000.0001) %MON dynstat_sss_del2             =   4.9114052027837E-06
(PID.TID 0000.0001) %MON forcing_qnet_max             =   1.2050685286147E+03
(PID.TID 0000.0001) %MON forcing_qnet_min             =  -3.0149165550256E+02
(PID.TID 0000.0001) %MON forcing_qnet_mean            =   2.4169116660524E+02
(PID.TID 0000.0001) %MON forcing_qnet_sd              =   1.4247663644969E+02
(PID.TID 0000.0001) %MON forcing_qnet_del2            =   1.6686323368494E-03
(PID.TID 0000.0001) %MON forcing_qsw_max              =   0.0000000000000E+00
(PID.TID 0000.0001) %MON forcing_qsw_min              =   0.0000000000000E+00
(PID.TID 0000.0001) %MON forcing_qsw_mean             =   0.0000000000000E+00
(PID.TID 0000.0001) %MON forcing_qsw_sd               =   0.0000000000000E+00
(PID.TID 0000.0001) %MON forcing_qsw_del2             =   0.0000000000000E+00
(PID.TID 0000.0001) %MON forcing_empmr_max            =   2.5873024825452E-04
(PID.TID 0000.0001) %MON forcing_empmr_min            =  -1.7936416292046E-03
(PID.TID 0000.0001) %MON forcing_empmr_mean           =   1.6364030125197E-05
(PID.TID 0000.0001) %MON forcing_empmr_sd             =   1.3238293636540E-04
(PID.TID 0000.0001) %MON forcing_empmr_del2           =   2.7392331314684E-09
(PID.TID 0000.0001) %MON forcing_fu_max               =   8.9130974766628E-01
(PID.TID 0000.0001) %MON forcing_fu_min               =  -3.9802873847616E-01
(PID.TID 0000.0001) %MON forcing_fu_mean              =   6.3894987624008E-02
(PID.TID 0000.0001) %MON forcing_fu_sd                =   1.5551220101284E-01
(PID.TID 0000.0001) %MON forcing_fu_del2              =   3.7587514424372E-07
(PID.TID 0000.0001) %MON forcing_fv_max               =   4.0103867403304E-01
(PID.TID 0000.0001) %MON forcing_fv_min               =  -5.7184892317822E-01
(PID.TID 0000.0001) %MON forcing_fv_mean              =   1.0989011578611E-02
(PID.TID 0000.0001) %MON forcing_fv_sd                =   1.0214028633141E-01
(PID.TID 0000.0001) %MON forcing_fv_del2              =   2.8834967457068E-07
(PID.TID 0000.0001) %MON trAdv_CFL_u_max              =   7.7252701574052E-02
(PID.TID 0000.0001) %MON trAdv_CFL_v_max              =   1.6490847013686E-01
(PID.TID 0000.0001) %MON trAdv_CFL_w_max              =   5.2707028710332E-01
(PID.TID 0000.0001) %MON advcfl_uvel_max              =   7.7252700522187E-02
(PID.TID 0000.0001) %MON advcfl_vvel_max              =   1.6495645213381E-01
(PID.TID 0000.0001) %MON advcfl_wvel_max              =   5.1828578231827E-01
(PID.TID 0000.0001) %MON advcfl_W_hf_max              =   5.2707028710332E-01
(PID.TID 0000.0001) %MON pe_b_mean                    =  -1.3553808250917E-03
(PID.TID 0000.0001) %MON ke_max                       =   3.0992952180415E+00
(PID.TID 0000.0001) %MON ke_mean                      =   2.5790358333519E-03
(PID.TID 0000.0001) %MON ke_vol                       =   4.5818637279720E+16
(PID.TID 0000.0001) %MON vort_r_min                   =  -5.1762877931713E-04
(PID.TID 0000.0001) %MON vort_r_max                   =   7.6319478712195E-04
(PID.TID 0000.0001) %MON vort_a_mean                  =   8.2147621412605E-05
(PID.TID 0000.0001) %MON vort_a_sd                    =   1.0151966296184E-05
(PID.TID 0000.0001) %MON vort_p_mean                  =   8.4848842666627E-05
(PID.TID 0000.0001) %MON vort_p_sd                    =   3.4982382589466E-05
(PID.TID 0000.0001) %MON surfExpan_theta_mean         =  -4.3715219112886E-04
(PID.TID 0000.0001) %MON surfExpan_salt_mean          =  -1.0718477254966E-03
(PID.TID 0000.0001) // =======================================================
(PID.TID 0000.0001) // End MONITOR dynamic field statistics
(PID.TID 0000.0001) // =======================================================
(PID.TID 0000.0001) // =======================================================
(PID.TID 0000.0001) // Begin OBCS MONITOR field statistics
(PID.TID 0000.0001) // =======================================================
(PID.TID 0000.0001) %MON obc_N_vVel_max               =   6.9426531208340E-01
(PID.TID 0000.0001) %MON obc_N_vVel_min               =  -3.2452656104798E-01
(PID.TID 0000.0001) %MON obc_N_vVel_mean              =   1.3381664447098E-02
(PID.TID 0000.0001) %MON obc_N_vVel_sd                =   6.4543608601926E-02
(PID.TID 0000.0001) %MON obc_N_vVel_Int               =   1.9155965681133E+08
(PID.TID 0000.0001) %MON obc_S_vVel_max               =   2.6099963963822E+00
(PID.TID 0000.0001) %MON obc_S_vVel_min               =  -2.6315746208509E-01
(PID.TID 0000.0001) %MON obc_S_vVel_mean              =  -4.9235880448266E-03
(PID.TID 0000.0001) %MON obc_S_vVel_sd                =   3.6409914101142E-02
(PID.TID 0000.0001) %MON obc_S_vVel_Int               =  -1.4988829687946E+08
(PID.TID 0000.0001) %MON obc_N_theta_max              =   1.6389715716732E+01
(PID.TID 0000.0001) %MON obc_N_theta_min              =   1.8895913648355E+00
(PID.TID 0000.0001) %MON obc_N_theta_mean             =   5.1588845079383E+00
(PID.TID 0000.0001) %MON obc_N_theta_sd               =   3.4826131499335E+00
(PID.TID 0000.0001) %MON obc_S_theta_max              =   2.5543605574674E+01
(PID.TID 0000.0001) %MON obc_S_theta_min              =   1.4633007926210E+00
(PID.TID 0000.0001) %MON obc_S_theta_mean             =   5.4595473148918E+00
(PID.TID 0000.0001) %MON obc_S_theta_sd               =   5.3558867108083E+00
(PID.TID 0000.0001) %MON obc_N_salt_max               =   3.5910862339236E+01
(PID.TID 0000.0001) %MON obc_N_salt_min               =   3.3295085604278E+01
(PID.TID 0000.0001) %MON obc_N_salt_mean              =   3.5114560468523E+01
(PID.TID 0000.0001) %MON obc_N_salt_sd                =   3.0984777910560E-01
(PID.TID 0000.0001) %MON obc_S_salt_max               =   3.7318257133628E+01
(PID.TID 0000.0001) %MON obc_S_salt_min               =   3.4844694992682E+01
(PID.TID 0000.0001) %MON obc_S_salt_mean              =   3.5168372003918E+01
(PID.TID 0000.0001) %MON obc_S_salt_sd                =   4.5716654409228E-01
(PID.TID 0000.0001) // =======================================================
(PID.TID 0000.0001) // End OBCS MONITOR field statistics
(PID.TID 0000.0001) // =======================================================
(PID.TID 0000.0001) // =======================================================
(PID.TID 0000.0001) // Begin MONITOR EXF statistics
(PID.TID 0000.0001) // =======================================================
(PID.TID 0000.0001) %MON exf_tsnumber                 =                    13
(PID.TID 0000.0001) %MON exf_time_sec                 =   3.1200000000000E+03
(PID.TID 0000.0001) %MON exf_ustress_max              =   9.0502582648635E-01
(PID.TID 0000.0001) %MON exf_ustress_min              =  -3.9587575447646E-01
(PID.TID 0000.0001) %MON exf_ustress_mean             =   6.4052387292583E-02
(PID.TID 0000.0001) %MON exf_ustress_sd               =   1.5577961937894E-01
(PID.TID 0000.0001) %MON exf_ustress_del2             =   4.3054261467455E-07
(PID.TID 0000.0001) %MON exf_vstress_max              =   4.0595819173870E-01
(PID.TID 0000.0001) %MON exf_vstress_min              =  -5.6886691821048E-01
(PID.TID 0000.0001) %MON exf_vstress_mean             =   1.1072821131734E-02
(PID.TID 0000.0001) %MON exf_vstress_sd               =   1.0231989277846E-01
(PID.TID 0000.0001) %MON exf_vstress_del2             =   3.2804565103026E-07
(PID.TID 0000.0001) %MON exf_hflux_max                =   1.1937822234909E+03
(PID.TID 0000.0001) %MON exf_hflux_min                =  -2.9934148062077E+02
(PID.TID 0000.0001) %MON exf_hflux_mean               =   2.3970155099838E+02
(PID.TID 0000.0001) %MON exf_hflux_sd                 =   1.4105908762561E+02
(PID.TID 0000.0001) %MON exf_hflux_del2               =   6.2732964684813E-02
(PID.TID 0000.0001) %MON exf_sflux_max                =   2.5979343819627E-07
(PID.TID 0000.0001) %MON exf_sflux_min                =  -1.8124529984641E-06
(PID.TID 0000.0001) %MON exf_sflux_mean               =   1.6144534757476E-08
(PID.TID 0000.0001) %MON exf_sflux_sd                 =   1.3269602433932E-07
(PID.TID 0000.0001) %MON exf_sflux_del2               =   3.2985301243808E-11
(PID.TID 0000.0001) %MON exf_uwind_max                =   2.0181543293957E+01
(PID.TID 0000.0001) %MON exf_uwind_min                =  -1.4772234113600E+01
(PID.TID 0000.0001) %MON exf_uwind_mean               =   2.4868110865067E+00
(PID.TID 0000.0001) %MON exf_uwind_sd                 =   6.6713267472481E+00
(PID.TID 0000.0001) %MON exf_uwind_del2               =   1.5899747087500E-03
(PID.TID 0000.0001) %MON exf_vwind_max                =   1.4669197968729E+01
(PID.TID 0000.0001) %MON exf_vwind_min                =  -1.2846789513542E+01
(PID.TID 0000.0001) %MON exf_vwind_mean               =   8.6712727084874E-01
(PID.TID 0000.0001) %MON exf_vwind_sd                 =   5.1867454740749E+00
(PID.TID 0000.0001) %MON exf_vwind_del2               =   1.1710053776936E-03
(PID.TID 0000.0001) %MON exf_wspeed_max               =   2.0282199527125E+01
(PID.TID 0000.0001) %MON exf_wspeed_min               =   1.1458796157553E-02
(PID.TID 0000.0001) %MON exf_wspeed_mean              =   7.7161904116512E+00
(PID.TID 0000.0001) %MON exf_wspeed_sd                =   4.3365278502909E+00
(PID.TID 0000.0001) %MON exf_wspeed_del2              =   1.9744483695795E-03
(PID.TID 0000.0001) %MON exf_atemp_max                =   2.9814926244538E+02
(PID.TID 0000.0001) %MON exf_atemp_min                =   2.7421895063718E+02
(PID.TID 0000.0001) %MON exf_atemp_mean               =   2.9066157108785E+02
(PID.TID 0000.0001) %MON exf_atemp_sd                 =   3.9477198570986E+00
(PID.TID 0000.0001) %MON exf_atemp_del2               =   3.8791415253772E-03
(PID.TID 0000.0001) %MON exf_aqh_max                  =   1.6731649066675E-02
(PID.TID 0000.0001) %MON exf_aqh_min                  =   2.7102328700209E-03
(PID.TID 0000.0001) %MON exf_aqh_mean                 =   9.4133265153213E-03
(PID.TID 0000.0001) %MON exf_aqh_sd                   =   2.8788044436869E-03
(PID.TID 0000.0001) %MON exf_aqh_del2                 =   2.1242153068833E-06
(PID.TID 0000.0001) %MON exf_lwflux_max               =   1.5421762734621E+02
(PID.TID 0000.0001) %MON exf_lwflux_min               =  -2.2891578672036E-01
(PID.TID 0000.0001) %MON exf_lwflux_mean              =   6.5330075998526E+01
(PID.TID 0000.0001) %MON exf_lwflux_sd                =   2.6491811449349E+01
(PID.TID 0000.0001) %MON exf_lwflux_del2              =   1.5451013544882E-02
(PID.TID 0000.0001) %MON exf_evap_max                 =   2.8941765572180E-07
(PID.TID 0000.0001) %MON exf_evap_min                 =  -9.9819842731980E-08
(PID.TID 0000.0001) %MON exf_evap_mean                =   5.9306138269908E-08
(PID.TID 0000.0001) %MON exf_evap_sd                  =   4.2159178122076E-08
(PID.TID 0000.0001) %MON exf_evap_del2                =   1.6408515428992E-11
(PID.TID 0000.0001) %MON exf_precip_max               =   1.9919098435667E-06
(PID.TID 0000.0001) %MON exf_precip_min               =   0.0000000000000E+00
(PID.TID 0000.0001) %MON exf_precip_mean              =   4.1573123940441E-08
(PID.TID 0000.0001) %MON exf_precip_sd                =   1.3847174930724E-07
(PID.TID 0000.0001) %MON exf_precip_del2              =   3.6002618057053E-11
(PID.TID 0000.0001) %MON exf_swflux_max               =   0.0000000000000E+00
(PID.TID 0000.0001) %MON exf_swflux_min               =   0.0000000000000E+00
(PID.TID 0000.0001) %MON exf_swflux_mean              =   0.0000000000000E+00
(PID.TID 0000.0001) %MON exf_swflux_sd                =   0.0000000000000E+00
(PID.TID 0000.0001) %MON exf_swflux_del2              =   0.0000000000000E+00
(PID.TID 0000.0001) %MON exf_swdown_max               =   0.0000000000000E+00
(PID.TID 0000.0001) %MON exf_swdown_min               =   0.0000000000000E+00
(PID.TID 0000.0001) %MON exf_swdown_mean              =   0.0000000000000E+00
(PID.TID 0000.0001) %MON exf_swdown_sd                =   0.0000000000000E+00
(PID.TID 0000.0001) %MON exf_swdown_del2              =   0.0000000000000E+00
(PID.TID 0000.0001) %MON exf_lwdown_max               =   4.1840605243108E+02
(PID.TID 0000.0001) %MON exf_lwdown_min               =   2.2445129712734E+02
(PID.TID 0000.0001) %MON exf_lwdown_mean              =   3.4969486341028E+02
(PID.TID 0000.0001) %MON exf_lwdown_sd                =   3.1528630999174E+01
(PID.TID 0000.0001) %MON exf_lwdown_del2              =   7.6670540414999E-02
(PID.TID 0000.0001) %MON exf_apressure_max            =   1.0281513960008E+05
(PID.TID 0000.0001) %MON exf_apressure_min            =   1.0001593692902E+05
(PID.TID 0000.0001) %MON exf_apressure_mean           =   1.0216918378156E+05
(PID.TID 0000.0001) %MON exf_apressure_sd             =   4.9886755976886E+02
(PID.TID 0000.0001) %MON exf_apressure_del2           =   2.2358003344738E+01
(PID.TID 0000.0001) %MON exf_runoff_max               =   4.4374798712073E-08
(PID.TID 0000.0001) %MON exf_runoff_min               =   0.0000000000000E+00
(PID.TID 0000.0001) %MON exf_runoff_mean              =   1.5884795719908E-09
(PID.TID 0000.0001) %MON exf_runoff_sd                =   5.3901959599983E-09
(PID.TID 0000.0001) %MON exf_runoff_del2              =   1.2741189756369E-12
(PID.TID 0000.0001) // =======================================================
(PID.TID 0000.0001) // End MONITOR EXF statistics
(PID.TID 0000.0001) // =======================================================
 cg2d: Sum(rhs),rhsMax =   1.97721784889041E+03  8.03979530435165E-02
(PID.TID 0000.0001)      cg2d_init_res =   1.43295952985708E+00
(PID.TID 0000.0001)      cg2d_iters(min,last) =      -1     311
(PID.TID 0000.0001)      cg2d_last_res =   6.82378268808479E-12
(PID.TID 0000.0001) // =======================================================
(PID.TID 0000.0001) // Begin MONITOR dynamic field statistics
(PID.TID 0000.0001) // =======================================================
(PID.TID 0000.0001) %MON time_tsnumber                =                    14
(PID.TID 0000.0001) %MON time_secondsf                =   3.3600000000000E+03
(PID.TID 0000.0001) %MON dynstat_eta_max              =   8.3778815468748E-01
(PID.TID 0000.0001) %MON dynstat_eta_min              =  -1.3071080782955E+00
(PID.TID 0000.0001) %MON dynstat_eta_mean             =  -6.7239447273600E-02
(PID.TID 0000.0001) %MON dynstat_eta_sd               =   2.7769345649498E-01
(PID.TID 0000.0001) %MON dynstat_eta_del2             =   2.4228328606909E-06
(PID.TID 0000.0001) %MON dynstat_uvel_max             =   1.2683461983118E+00
(PID.TID 0000.0001) %MON dynstat_uvel_min             =  -8.9371145295916E-01
(PID.TID 0000.0001) %MON dynstat_uvel_mean            =   1.2821779138406E-03
(PID.TID 0000.0001) %MON dynstat_uvel_sd              =   5.2294476710616E-02
(PID.TID 0000.0001) %MON dynstat_uvel_del2            =   5.4565715870067E-07
(PID.TID 0000.0001) %MON dynstat_vvel_max             =   2.6695680775817E+00
(PID.TID 0000.0001) %MON dynstat_vvel_min             =  -9.1690252755194E-01
(PID.TID 0000.0001) %MON dynstat_vvel_mean            =  -4.8017110365636E-03
(PID.TID 0000.0001) %MON dynstat_vvel_sd              =   4.9452079149389E-02
(PID.TID 0000.0001) %MON dynstat_vvel_del2            =   4.9927999839193E-07
(PID.TID 0000.0001) %MON dynstat_wvel_max             =   3.8249067960311E-02
(PID.TID 0000.0001) %MON dynstat_wvel_min             =  -3.2881490267783E-02
(PID.TID 0000.0001) %MON dynstat_wvel_mean            =  -1.8215462753852E-05
(PID.TID 0000.0001) %MON dynstat_wvel_sd              =   6.1030528181796E-04
(PID.TID 0000.0001) %MON dynstat_wvel_del2            =   7.0541301080955E-08
(PID.TID 0000.0001) %MON dynstat_theta_max            =   2.6147321985211E+01
(PID.TID 0000.0001) %MON dynstat_theta_min            =   1.4688654665347E+00
(PID.TID 0000.0001) %MON dynstat_theta_mean           =   5.5098994504170E+00
(PID.TID 0000.0001) %MON dynstat_theta_sd             =   4.7733188089873E+00
(PID.TID 0000.0001) %MON dynstat_theta_del2           =   4.0342200681580E-06
(PID.TID 0000.0001) %MON dynstat_salt_max             =   3.9143566389143E+01
(PID.TID 0000.0001) %MON dynstat_salt_min             =   3.3101325444292E+01
(PID.TID 0000.0001) %MON dynstat_salt_mean            =   3.5173366907636E+01
(PID.TID 0000.0001) %MON dynstat_salt_sd              =   3.7891597613888E-01
(PID.TID 0000.0001) %MON dynstat_salt_del2            =   5.3056210696338E-07
(PID.TID 0000.0001) %MON dynstat_sst_max              =   2.6143264110893E+01
(PID.TID 0000.0001) %MON dynstat_sst_min              =   3.8936658119553E+00
(PID.TID 0000.0001) %MON dynstat_sst_mean             =   1.9635343697350E+01
(PID.TID 0000.0001) %MON dynstat_sst_sd               =   3.6392498906983E+00
(PID.TID 0000.0001) %MON dynstat_sst_del2             =   1.9307627045108E-05
(PID.TID 0000.0001) %MON dynstat_sss_max              =   3.7336367530722E+01
(PID.TID 0000.0001) %MON dynstat_sss_min              =   3.3101325444292E+01
(PID.TID 0000.0001) %MON dynstat_sss_mean             =   3.5868447988462E+01
(PID.TID 0000.0001) %MON dynstat_sss_sd               =   4.8717680723737E-01
(PID.TID 0000.0001) %MON dynstat_sss_del2             =   4.9055853125168E-06
(PID.TID 0000.0001) %MON forcing_qnet_max             =   1.2122128871646E+03
(PID.TID 0000.0001) %MON forcing_qnet_min             =  -3.0429738946042E+02
(PID.TID 0000.0001) %MON forcing_qnet_mean            =   2.4175578076886E+02
(PID.TID 0000.0001) %MON forcing_qnet_sd              =   1.4269849527954E+02
(PID.TID 0000.0001) %MON forcing_qnet_del2            =   1.6788682085144E-03
(PID.TID 0000.0001) %MON forcing_qsw_max              =   0.0000000000000E+00
(PID.TID 0000.0001) %MON forcing_qsw_min              =   0.0000000000000E+00
(PID.TID 0000.0001) %MON forcing_qsw_mean             =   0.0000000000000E+00
(PID.TID 0000.0001) %MON forcing_qsw_sd               =   0.0000000000000E+00
(PID.TID 0000.0001) %MON forcing_qsw_del2             =   0.0000000000000E+00
(PID.TID 0000.0001) %MON forcing_empmr_max            =   2.5979343819627E-04
(PID.TID 0000.0001) %MON forcing_empmr_min            =  -1.8124529984641E-03
(PID.TID 0000.0001) %MON forcing_empmr_mean           =   1.6144534757476E-05
(PID.TID 0000.0001) %MON forcing_empmr_sd             =   1.3269602433932E-04
(PID.TID 0000.0001) %MON forcing_empmr_del2           =   2.6587144293430E-09
(PID.TID 0000.0001) %MON forcing_fu_max               =   9.0458316311090E-01
(PID.TID 0000.0001) %MON forcing_fu_min               =  -3.9586192588064E-01
(PID.TID 0000.0001) %MON forcing_fu_mean              =   6.4114230198404E-02
(PID.TID 0000.0001) %MON forcing_fu_sd                =   1.5584029496616E-01
(PID.TID 0000.0001) %MON forcing_fu_del2              =   3.9238130049766E-07
(PID.TID 0000.0001) %MON forcing_fv_max               =   4.0588009797476E-01
(PID.TID 0000.0001) %MON forcing_fv_min               =  -5.7367196584007E-01
(PID.TID 0000.0001) %MON forcing_fv_mean              =   1.1056044490685E-02
(PID.TID 0000.0001) %MON forcing_fv_sd                =   1.0245211963372E-01
(PID.TID 0000.0001) %MON forcing_fv_del2              =   3.0587515618783E-07
(PID.TID 0000.0001) %MON trAdv_CFL_u_max              =   7.6951531463565E-02
(PID.TID 0000.0001) %MON trAdv_CFL_v_max              =   1.6867241204257E-01
(PID.TID 0000.0001) %MON trAdv_CFL_w_max              =   5.3103400916468E-01
(PID.TID 0000.0001) %MON advcfl_uvel_max              =   7.6951530415800E-02
(PID.TID 0000.0001) %MON advcfl_vvel_max              =   1.6872148920127E-01
(PID.TID 0000.0001) %MON advcfl_wvel_max              =   5.2218344234527E-01
(PID.TID 0000.0001) %MON advcfl_W_hf_max              =   5.3103400916468E-01
(PID.TID 0000.0001) %MON pe_b_mean                    =  -1.5354565831407E-03
(PID.TID 0000.0001) %MON ke_max                       =   3.2533707083664E+00
(PID.TID 0000.0001) %MON ke_mean                      =   2.5832816990055E-03
(PID.TID 0000.0001) %MON ke_vol                       =   4.5818637279720E+16
(PID.TID 0000.0001) %MON vort_r_min                   =  -5.1680146835753E-04
(PID.TID 0000.0001) %MON vort_r_max                   =   7.8014165557673E-04
(PID.TID 0000.0001) %MON vort_a_mean                  =   8.2147620580608E-05
(PID.TID 0000.0001) %MON vort_a_sd                    =   1.0155280949200E-05
(PID.TID 0000.0001) %MON vort_p_mean                  =   8.4848841807272E-05
(PID.TID 0000.0001) %MON vort_p_sd                    =   3.4985889845358E-05
(PID.TID 0000.0001) %MON surfExpan_theta_mean         =  -4.7545289791886E-04
(PID.TID 0000.0001) %MON surfExpan_salt_mean          =  -1.1336075412020E-03
(PID.TID 0000.0001) // =======================================================
(PID.TID 0000.0001) // End MONITOR dynamic field statistics
(PID.TID 0000.0001) // =======================================================
(PID.TID 0000.0001) // =======================================================
(PID.TID 0000.0001) // Begin OBCS MONITOR field statistics
(PID.TID 0000.0001) // =======================================================
(PID.TID 0000.0001) %MON obc_N_vVel_max               =   6.9406954362584E-01
(PID.TID 0000.0001) %MON obc_N_vVel_min               =  -3.2488788876920E-01
(PID.TID 0000.0001) %MON obc_N_vVel_mean              =   1.3301629419791E-02
(PID.TID 0000.0001) %MON obc_N_vVel_sd                =   6.4519750541269E-02
(PID.TID 0000.0001) %MON obc_N_vVel_Int               =   1.9041394863546E+08
(PID.TID 0000.0001) %MON obc_S_vVel_max               =   2.6695680775817E+00
(PID.TID 0000.0001) %MON obc_S_vVel_min               =  -2.6321008674783E-01
(PID.TID 0000.0001) %MON obc_S_vVel_mean              =  -5.5958545034757E-03
(PID.TID 0000.0001) %MON obc_S_vVel_sd                =   3.6491707287936E-02
(PID.TID 0000.0001) %MON obc_S_vVel_Int               =  -1.7035403723358E+08
(PID.TID 0000.0001) %MON obc_N_theta_max              =   1.6389627614545E+01
(PID.TID 0000.0001) %MON obc_N_theta_min              =   1.8895914139009E+00
(PID.TID 0000.0001) %MON obc_N_theta_mean             =   5.1588771237882E+00
(PID.TID 0000.0001) %MON obc_N_theta_sd               =   3.4826038600191E+00
(PID.TID 0000.0001) %MON obc_S_theta_max              =   2.5543502825894E+01
(PID.TID 0000.0001) %MON obc_S_theta_min              =   1.4633011889082E+00
(PID.TID 0000.0001) %MON obc_S_theta_mean             =   5.4595465098672E+00
(PID.TID 0000.0001) %MON obc_S_theta_sd               =   5.3558828399123E+00
(PID.TID 0000.0001) %MON obc_N_salt_max               =   3.5910861930873E+01
(PID.TID 0000.0001) %MON obc_N_salt_min               =   3.3295091106912E+01
(PID.TID 0000.0001) %MON obc_N_salt_mean              =   3.5114560172537E+01
(PID.TID 0000.0001) %MON obc_N_salt_sd                =   3.0984766009526E-01
(PID.TID 0000.0001) %MON obc_S_salt_max               =   3.7318250249244E+01
(PID.TID 0000.0001) %MON obc_S_salt_min               =   3.4844695044902E+01
(PID.TID 0000.0001) %MON obc_S_salt_mean              =   3.5168371932001E+01
(PID.TID 0000.0001) %MON obc_S_salt_sd                =   4.5716619308913E-01
(PID.TID 0000.0001) // =======================================================
(PID.TID 0000.0001) // End OBCS MONITOR field statistics
(PID.TID 0000.0001) // =======================================================
(PID.TID 0000.0001) // =======================================================
(PID.TID 0000.0001) // Begin MONITOR EXF statistics
(PID.TID 0000.0001) // =======================================================
(PID.TID 0000.0001) %MON exf_tsnumber                 =                    14
(PID.TID 0000.0001) %MON exf_time_sec                 =   3.3600000000000E+03
(PID.TID 0000.0001) %MON exf_ustress_max              =   9.1892341366803E-01
(PID.TID 0000.0001) %MON exf_ustress_min              =  -3.9384924253112E-01
(PID.TID 0000.0001) %MON exf_ustress_mean             =   6.4294930837768E-02
(PID.TID 0000.0001) %MON exf_ustress_sd               =   1.5618117762423E-01
(PID.TID 0000.0001) %MON exf_ustress_del2             =   4.4981790092724E-07
(PID.TID 0000.0001) %MON exf_vstress_max              =   4.1134596316383E-01
(PID.TID 0000.0001) %MON exf_vstress_min              =  -5.7072184413277E-01
(PID.TID 0000.0001) %MON exf_vstress_mean             =   1.1139010915715E-02
(PID.TID 0000.0001) %MON exf_vstress_sd               =   1.0269718590458E-01
(PID.TID 0000.0001) %MON exf_vstress_del2             =   3.4963198952846E-07
(PID.TID 0000.0001) %MON exf_hflux_max                =   1.2009100869406E+03
(PID.TID 0000.0001) %MON exf_hflux_min                =  -3.0215987219449E+02
(PID.TID 0000.0001) %MON exf_hflux_mean               =   2.3980268261593E+02
(PID.TID 0000.0001) %MON exf_hflux_sd                 =   1.4134321923116E+02
(PID.TID 0000.0001) %MON exf_hflux_del2               =   6.2804865186475E-02
(PID.TID 0000.0001) %MON exf_sflux_max                =   2.6132855664585E-07
(PID.TID 0000.0001) %MON exf_sflux_min                =  -1.8312676177129E-06
(PID.TID 0000.0001) %MON exf_sflux_mean               =   1.5932234355214E-08
(PID.TID 0000.0001) %MON exf_sflux_sd                 =   1.3331540810780E-07
(PID.TID 0000.0001) %MON exf_sflux_del2               =   3.3375084208327E-11
(PID.TID 0000.0001) %MON exf_uwind_max                =   2.0303347974195E+01
(PID.TID 0000.0001) %MON exf_uwind_min                =  -1.4750836452772E+01
(PID.TID 0000.0001) %MON exf_uwind_mean               =   2.4887751411995E+00
(PID.TID 0000.0001) %MON exf_uwind_sd                 =   6.6743428010195E+00
(PID.TID 0000.0001) %MON exf_uwind_del2               =   1.5913708743259E-03
(PID.TID 0000.0001) %MON exf_vwind_max                =   1.4760465864870E+01
(PID.TID 0000.0001) %MON exf_vwind_min                =  -1.2875776289685E+01
(PID.TID 0000.0001) %MON exf_vwind_mean               =   8.6874417087798E-01
(PID.TID 0000.0001) %MON exf_vwind_sd                 =   5.1931042939464E+00
(PID.TID 0000.0001) %MON exf_vwind_del2               =   1.1721774014367E-03
(PID.TID 0000.0001) %MON exf_wspeed_max               =   2.0407414997641E+01
(PID.TID 0000.0001) %MON exf_wspeed_min               =   1.4874380166833E-02
(PID.TID 0000.0001) %MON exf_wspeed_mean              =   7.7203391888362E+00
(PID.TID 0000.0001) %MON exf_wspeed_sd                =   4.3428406579718E+00
(PID.TID 0000.0001) %MON exf_wspeed_del2              =   1.9762530673618E-03
(PID.TID 0000.0001) %MON exf_atemp_max                =   2.9814706511671E+02
(PID.TID 0000.0001) %MON exf_atemp_min                =   2.7419334929034E+02
(PID.TID 0000.0001) %MON exf_atemp_mean               =   2.9065844988195E+02
(PID.TID 0000.0001) %MON exf_atemp_sd                 =   3.9488921891151E+00
(PID.TID 0000.0001) %MON exf_atemp_del2               =   3.8785508627379E-03
(PID.TID 0000.0001) %MON exf_aqh_max                  =   1.6724662816345E-02
(PID.TID 0000.0001) %MON exf_aqh_min                  =   2.7079381606566E-03
(PID.TID 0000.0001) %MON exf_aqh_mean                 =   9.4121383624748E-03
(PID.TID 0000.0001) %MON exf_aqh_sd                   =   2.8803677271181E-03
(PID.TID 0000.0001) %MON exf_aqh_del2                 =   2.1239404076105E-06
(PID.TID 0000.0001) %MON exf_lwflux_max               =   1.5448829174355E+02
(PID.TID 0000.0001) %MON exf_lwflux_min               =  -2.6002103060363E-01
(PID.TID 0000.0001) %MON exf_lwflux_mean              =   6.5312512873670E+01
(PID.TID 0000.0001) %MON exf_lwflux_sd                =   2.6486979957358E+01
(PID.TID 0000.0001) %MON exf_lwflux_del2              =   1.5451482682354E-02
(PID.TID 0000.0001) %MON exf_evap_max                 =   2.9167195032034E-07
(PID.TID 0000.0001) %MON exf_evap_min                 =  -1.0072233352882E-07
(PID.TID 0000.0001) %MON exf_evap_mean                =   5.9336973182535E-08
(PID.TID 0000.0001) %MON exf_evap_sd                  =   4.2220018925051E-08
(PID.TID 0000.0001) %MON exf_evap_del2                =   1.6427623175872E-11
(PID.TID 0000.0001) %MON exf_precip_max               =   2.0113605350578E-06
(PID.TID 0000.0001) %MON exf_precip_min               =   0.0000000000000E+00
(PID.TID 0000.0001) %MON exf_precip_mean              =   4.1816259255330E-08
(PID.TID 0000.0001) %MON exf_precip_sd                =   1.3924116890474E-07
(PID.TID 0000.0001) %MON exf_precip_del2              =   3.6487842127549E-11
(PID.TID 0000.0001) %MON exf_swflux_max               =   0.0000000000000E+00
(PID.TID 0000.0001) %MON exf_swflux_min               =   0.0000000000000E+00
(PID.TID 0000.0001) %MON exf_swflux_mean              =   0.0000000000000E+00
(PID.TID 0000.0001) %MON exf_swflux_sd                =   0.0000000000000E+00
(PID.TID 0000.0001) %MON exf_swflux_del2              =   0.0000000000000E+00
(PID.TID 0000.0001) %MON exf_swdown_max               =   0.0000000000000E+00
(PID.TID 0000.0001) %MON exf_swdown_min               =   0.0000000000000E+00
(PID.TID 0000.0001) %MON exf_swdown_mean              =   0.0000000000000E+00
(PID.TID 0000.0001) %MON exf_swdown_sd                =   0.0000000000000E+00
(PID.TID 0000.0001) %MON exf_swdown_del2              =   0.0000000000000E+00
(PID.TID 0000.0001) %MON exf_lwdown_max               =   4.1843717641437E+02
(PID.TID 0000.0001) %MON exf_lwdown_min               =   2.2422666547346E+02
(PID.TID 0000.0001) %MON exf_lwdown_mean              =   3.4970935458784E+02
(PID.TID 0000.0001) %MON exf_lwdown_sd                =   3.1487337713033E+01
(PID.TID 0000.0001) %MON exf_lwdown_del2              =   7.6668130763894E-02
(PID.TID 0000.0001) %MON exf_apressure_max            =   1.0281834698098E+05
(PID.TID 0000.0001) %MON exf_apressure_min            =   1.0001465906299E+05
(PID.TID 0000.0001) %MON exf_apressure_mean           =   1.0216996108790E+05
(PID.TID 0000.0001) %MON exf_apressure_sd             =   4.9898323043071E+02
(PID.TID 0000.0001) %MON exf_apressure_del2           =   2.2358191203570E+01
(PID.TID 0000.0001) %MON exf_runoff_max               =   4.4374798712073E-08
(PID.TID 0000.0001) %MON exf_runoff_min               =   0.0000000000000E+00
(PID.TID 0000.0001) %MON exf_runoff_mean              =   1.5884795719908E-09
(PID.TID 0000.0001) %MON exf_runoff_sd                =   5.3901959599983E-09
(PID.TID 0000.0001) %MON exf_runoff_del2              =   1.2741189756369E-12
(PID.TID 0000.0001) // =======================================================
(PID.TID 0000.0001) // End MONITOR EXF statistics
(PID.TID 0000.0001) // =======================================================
 cg2d: Sum(rhs),rhsMax =   2.21429472337916E+03  7.90472556595891E-02
(PID.TID 0000.0001)      cg2d_init_res =   1.46732732823329E+00
(PID.TID 0000.0001)      cg2d_iters(min,last) =      -1     311
(PID.TID 0000.0001)      cg2d_last_res =   6.54422322356945E-12
(PID.TID 0000.0001) // =======================================================
(PID.TID 0000.0001) // Begin MONITOR dynamic field statistics
(PID.TID 0000.0001) // =======================================================
(PID.TID 0000.0001) %MON time_tsnumber                =                    15
(PID.TID 0000.0001) %MON time_secondsf                =   3.6000000000000E+03
(PID.TID 0000.0001) %MON dynstat_eta_max              =   8.2403368710607E-01
(PID.TID 0000.0001) %MON dynstat_eta_min              =  -1.3851903429107E+00
(PID.TID 0000.0001) %MON dynstat_eta_mean             =  -7.5301744511571E-02
(PID.TID 0000.0001) %MON dynstat_eta_sd               =   2.8535550183215E-01
(PID.TID 0000.0001) %MON dynstat_eta_del2             =   2.4885226060051E-06
(PID.TID 0000.0001) %MON dynstat_uvel_max             =   1.2641942084896E+00
(PID.TID 0000.0001) %MON dynstat_uvel_min             =  -9.3132464954631E-01
(PID.TID 0000.0001) %MON dynstat_uvel_mean            =   1.0690031980540E-03
(PID.TID 0000.0001) %MON dynstat_uvel_sd              =   5.2315857603639E-02
(PID.TID 0000.0001) %MON dynstat_uvel_del2            =   5.5361532181943E-07
(PID.TID 0000.0001) %MON dynstat_vvel_max             =   2.7285896357225E+00
(PID.TID 0000.0001) %MON dynstat_vvel_min             =  -9.1572028117509E-01
(PID.TID 0000.0001) %MON dynstat_vvel_mean            =  -4.9476935139862E-03
(PID.TID 0000.0001) %MON dynstat_vvel_sd              =   4.9502872692075E-02
(PID.TID 0000.0001) %MON dynstat_vvel_del2            =   5.0733176008462E-07
(PID.TID 0000.0001) %MON dynstat_wvel_max             =   3.9583604113426E-02
(PID.TID 0000.0001) %MON dynstat_wvel_min             =  -3.3065679429796E-02
(PID.TID 0000.0001) %MON dynstat_wvel_mean            =  -1.9261330028615E-05
(PID.TID 0000.0001) %MON dynstat_wvel_sd              =   6.1197581138816E-04
(PID.TID 0000.0001) %MON dynstat_wvel_del2            =   7.0440146201240E-08
(PID.TID 0000.0001) %MON dynstat_theta_max            =   2.6148720333541E+01
(PID.TID 0000.0001) %MON dynstat_theta_min            =   1.4688656793821E+00
(PID.TID 0000.0001) %MON dynstat_theta_mean           =   5.5099145214348E+00
(PID.TID 0000.0001) %MON dynstat_theta_sd             =   4.7733233946453E+00
(PID.TID 0000.0001) %MON dynstat_theta_del2           =   4.0347621876726E-06
(PID.TID 0000.0001) %MON dynstat_salt_max             =   3.9138981495808E+01
(PID.TID 0000.0001) %MON dynstat_salt_min             =   3.3102476517982E+01
(PID.TID 0000.0001) %MON dynstat_salt_mean            =   3.5173367397434E+01
(PID.TID 0000.0001) %MON dynstat_salt_sd              =   3.7891702659064E-01
(PID.TID 0000.0001) %MON dynstat_salt_del2            =   5.3225512359363E-07
(PID.TID 0000.0001) %MON dynstat_sst_max              =   2.6144531884782E+01
(PID.TID 0000.0001) %MON dynstat_sst_min              =   3.8797978086203E+00
(PID.TID 0000.0001) %MON dynstat_sst_mean             =   1.9634729313100E+01
(PID.TID 0000.0001) %MON dynstat_sst_sd               =   3.6392843686363E+00
(PID.TID 0000.0001) %MON dynstat_sst_del2             =   1.9363017368923E-05
(PID.TID 0000.0001) %MON dynstat_sss_max              =   3.7336435848751E+01
(PID.TID 0000.0001) %MON dynstat_sss_min              =   3.3102476517982E+01
(PID.TID 0000.0001) %MON dynstat_sss_mean             =   3.5868473513837E+01
(PID.TID 0000.0001) %MON dynstat_sss_sd               =   4.8717081637156E-01
(PID.TID 0000.0001) %MON dynstat_sss_del2             =   4.9000989306782E-06
(PID.TID 0000.0001) %MON forcing_qnet_max             =   1.2194802453468E+03
(PID.TID 0000.0001) %MON forcing_qnet_min             =  -3.0715409481433E+02
(PID.TID 0000.0001) %MON forcing_qnet_mean            =   2.4184365174428E+02
(PID.TID 0000.0001) %MON forcing_qnet_sd              =   1.4296057419909E+02
(PID.TID 0000.0001) %MON forcing_qnet_del2            =   1.6848104776778E-03
(PID.TID 0000.0001) %MON forcing_qsw_max              =   0.0000000000000E+00
(PID.TID 0000.0001) %MON forcing_qsw_min              =   0.0000000000000E+00
(PID.TID 0000.0001) %MON forcing_qsw_mean             =   0.0000000000000E+00
(PID.TID 0000.0001) %MON forcing_qsw_sd               =   0.0000000000000E+00
(PID.TID 0000.0001) %MON forcing_qsw_del2             =   0.0000000000000E+00
(PID.TID 0000.0001) %MON forcing_empmr_max            =   2.6132855664585E-04
(PID.TID 0000.0001) %MON forcing_empmr_min            =  -1.8312676177129E-03
(PID.TID 0000.0001) %MON forcing_empmr_mean           =   1.5932234355214E-05
(PID.TID 0000.0001) %MON forcing_empmr_sd             =   1.3331540810780E-04
(PID.TID 0000.0001) %MON forcing_empmr_del2           =   2.6146313038511E-09
(PID.TID 0000.0001) %MON forcing_fu_max               =   9.1866961499869E-01
(PID.TID 0000.0001) %MON forcing_fu_min               =  -3.9384076414164E-01
(PID.TID 0000.0001) %MON forcing_fu_mean              =   6.4357330894587E-02
(PID.TID 0000.0001) %MON forcing_fu_sd                =   1.5624197088462E-01
(PID.TID 0000.0001) %MON forcing_fu_del2              =   4.1196859343884E-07
(PID.TID 0000.0001) %MON forcing_fv_max               =   4.1115939613003E-01
(PID.TID 0000.0001) %MON forcing_fv_min               =  -5.7566107676605E-01
(PID.TID 0000.0001) %MON forcing_fv_mean              =   1.1122684057167E-02
(PID.TID 0000.0001) %MON forcing_fv_sd                =   1.0282939361223E-01
(PID.TID 0000.0001) %MON forcing_fv_del2              =   3.2648577524837E-07
(PID.TID 0000.0001) %MON trAdv_CFL_u_max              =   7.6699627073532E-02
(PID.TID 0000.0001) %MON trAdv_CFL_v_max              =   1.7240159529799E-01
(PID.TID 0000.0001) %MON trAdv_CFL_w_max              =   5.3230593536236E-01
(PID.TID 0000.0001) %MON advcfl_uvel_max              =   7.6699626029198E-02
(PID.TID 0000.0001) %MON advcfl_vvel_max              =   1.7245175750502E-01
(PID.TID 0000.0001) %MON advcfl_wvel_max              =   5.2343416977299E-01
(PID.TID 0000.0001) %MON advcfl_W_hf_max              =   5.3230593536236E-01
(PID.TID 0000.0001) %MON pe_b_mean                    =  -1.7254514835249E-03
(PID.TID 0000.0001) %MON ke_max                       =   3.4167183438602E+00
(PID.TID 0000.0001) %MON ke_mean                      =   2.5873422406817E-03
(PID.TID 0000.0001) %MON ke_vol                       =   4.5818637279720E+16
(PID.TID 0000.0001) %MON vort_r_min                   =  -5.3487923100635E-04
(PID.TID 0000.0001) %MON vort_r_max                   =   7.9657657704558E-04
(PID.TID 0000.0001) %MON vort_a_mean                  =   8.2147619744357E-05
(PID.TID 0000.0001) %MON vort_a_sd                    =   1.0158571185516E-05
(PID.TID 0000.0001) %MON vort_p_mean                  =   8.4848840943524E-05
(PID.TID 0000.0001) %MON vort_p_sd                    =   3.4989731148308E-05
(PID.TID 0000.0001) %MON surfExpan_theta_mean         =  -5.1266306730110E-04
(PID.TID 0000.0001) %MON surfExpan_salt_mean          =  -1.1938527080305E-03
(PID.TID 0000.0001) // =======================================================
(PID.TID 0000.0001) // End MONITOR dynamic field statistics
(PID.TID 0000.0001) // =======================================================
(PID.TID 0000.0001) // =======================================================
(PID.TID 0000.0001) // Begin OBCS MONITOR field statistics
(PID.TID 0000.0001) // =======================================================
(PID.TID 0000.0001) %MON obc_N_vVel_max               =   6.9386348641532E-01
(PID.TID 0000.0001) %MON obc_N_vVel_min               =  -3.2526955108089E-01
(PID.TID 0000.0001) %MON obc_N_vVel_mean              =   1.3207329893574E-02
(PID.TID 0000.0001) %MON obc_N_vVel_sd                =   6.4494935757103E-02
(PID.TID 0000.0001) %MON obc_N_vVel_Int               =   1.8906404295287E+08
(PID.TID 0000.0001) %MON obc_S_vVel_max               =   2.7285896357225E+00
(PID.TID 0000.0001) %MON obc_S_vVel_min               =  -2.6325457576441E-01
(PID.TID 0000.0001) %MON obc_S_vVel_mean              =  -6.2604081018520E-03
(PID.TID 0000.0001) %MON obc_S_vVel_sd                =   3.6578004715070E-02
(PID.TID 0000.0001) %MON obc_S_vVel_Int               =  -1.9058497575623E+08
(PID.TID 0000.0001) %MON obc_N_theta_max              =   1.6389539512358E+01
(PID.TID 0000.0001) %MON obc_N_theta_min              =   1.8895914629663E+00
(PID.TID 0000.0001) %MON obc_N_theta_mean             =   5.1588697396382E+00
(PID.TID 0000.0001) %MON obc_N_theta_sd               =   3.4825945703428E+00
(PID.TID 0000.0001) %MON obc_S_theta_max              =   2.5543400077115E+01
(PID.TID 0000.0001) %MON obc_S_theta_min              =   1.4633015851955E+00
(PID.TID 0000.0001) %MON obc_S_theta_mean             =   5.4595457048426E+00
(PID.TID 0000.0001) %MON obc_S_theta_sd               =   5.3558789690521E+00
(PID.TID 0000.0001) %MON obc_N_salt_max               =   3.5910861522510E+01
(PID.TID 0000.0001) %MON obc_N_salt_min               =   3.3295096609545E+01
(PID.TID 0000.0001) %MON obc_N_salt_mean              =   3.5114559876550E+01
(PID.TID 0000.0001) %MON obc_N_salt_sd                =   3.0984754112533E-01
(PID.TID 0000.0001) %MON obc_S_salt_max               =   3.7318243364860E+01
(PID.TID 0000.0001) %MON obc_S_salt_min               =   3.4844695097122E+01
(PID.TID 0000.0001) %MON obc_S_salt_mean              =   3.5168371860084E+01
(PID.TID 0000.0001) %MON obc_S_salt_sd                =   4.5716584210290E-01
(PID.TID 0000.0001) // =======================================================
(PID.TID 0000.0001) // End OBCS MONITOR field statistics
(PID.TID 0000.0001) // =======================================================
 Computing Diagnostic #     23  ETAN         Counter:      15   Parms: SM      M1      
 Computing Diagnostic #     80  oceTAUX      Counter:      15   Parms: UU      U1      
           Vector  Mate for  oceTAUX      Diagnostic #     81  oceTAUY  exists 
 Computing Diagnostic #     81  oceTAUY      Counter:      15   Parms: VV      U1      
           Vector  Mate for  oceTAUY      Diagnostic #     80  oceTAUX  exists 
 Computing Diagnostic #    185  EXFuwind     Counter:      15   Parms: UM      U1      
 Computing Diagnostic #    186  EXFvwind     Counter:      15   Parms: VM      U1      
 Computing Diagnostic #     26  THETA        Counter:      15   Parms: SMR     MR      
 Computing Diagnostic #     27  SALT         Counter:      15   Parms: SMR     MR      
 Computing Diagnostic #     30  UVEL         Counter:      15   Parms: UUR     MR      
           Vector  Mate for  UVEL         Diagnostic #     31  VVEL     exists 
 Computing Diagnostic #     31  VVEL         Counter:      15   Parms: VVR     MR      
           Vector  Mate for  VVEL         Diagnostic #     30  UVEL     exists 
 Computing Diagnostic #     32  WVEL         Counter:      15   Parms: WM      LR      
 Computing Diagnostic #     36  UVELSQ       Counter:      15   Parms: UURP    MR      
           Vector  Mate for  UVELSQ       Diagnostic #     37  VVELSQ   exists 
 Computing Diagnostic #     37  VVELSQ       Counter:      15   Parms: VVRP    MR      
           Vector  Mate for  VVELSQ       Diagnostic #     36  UVELSQ   exists 
 Computing Diagnostic #     52  WTHMASS      Counter:      15   Parms: WM      LR      
 Computing Diagnostic #     55  WSLTMASS     Counter:      15   Parms: WM      LR      
(PID.TID 0000.0001) %CHECKPOINT        15 ckptA
(PID.TID 0000.0001)   Seconds in section "ALL                    [THE_MODEL_MAIN]":
(PID.TID 0000.0001)           User time:   36.4441590458155
(PID.TID 0000.0001)         System time:  0.000000000000000E+000
(PID.TID 0000.0001)     Wall clock time:   51.8765928745270
(PID.TID 0000.0001)          No. starts:           1
(PID.TID 0000.0001)           No. stops:           1
(PID.TID 0000.0001)   Seconds in section "INITIALISE_FIXED       [THE_MODEL_MAIN]":
(PID.TID 0000.0001)           User time:   2.10883796215057
(PID.TID 0000.0001)         System time:  0.000000000000000E+000
(PID.TID 0000.0001)     Wall clock time:   6.32990598678589
(PID.TID 0000.0001)          No. starts:           1
(PID.TID 0000.0001)           No. stops:           1
(PID.TID 0000.0001)   Seconds in section "THE_MAIN_LOOP          [THE_MODEL_MAIN]":
(PID.TID 0000.0001)           User time:   34.3353042602539
(PID.TID 0000.0001)         System time:  0.000000000000000E+000
(PID.TID 0000.0001)     Wall clock time:   45.5466558933258
(PID.TID 0000.0001)          No. starts:           1
(PID.TID 0000.0001)           No. stops:           1
(PID.TID 0000.0001)   Seconds in section "INITIALISE_VARIA    [THE_MAIN_LOOP]":
(PID.TID 0000.0001)           User time:  0.940775871276855
(PID.TID 0000.0001)         System time:  0.000000000000000E+000
(PID.TID 0000.0001)     Wall clock time:   1.91534304618835
(PID.TID 0000.0001)          No. starts:           1
(PID.TID 0000.0001)           No. stops:           1
(PID.TID 0000.0001)   Seconds in section "MAIN LOOP           [THE_MAIN_LOOP]":
(PID.TID 0000.0001)           User time:   33.3945174217224
(PID.TID 0000.0001)         System time:  0.000000000000000E+000
(PID.TID 0000.0001)     Wall clock time:   43.6312959194183
(PID.TID 0000.0001)          No. starts:           1
(PID.TID 0000.0001)           No. stops:           1
(PID.TID 0000.0001)   Seconds in section "MAIN_DO_LOOP        [THE_MAIN_LOOP]":
(PID.TID 0000.0001)           User time:   33.3944365978241
(PID.TID 0000.0001)         System time:  0.000000000000000E+000
(PID.TID 0000.0001)     Wall clock time:   43.6312038898468
(PID.TID 0000.0001)          No. starts:          15
(PID.TID 0000.0001)           No. stops:          15
(PID.TID 0000.0001)   Seconds in section "FORWARD_STEP        [MAIN_DO_LOOP]":
(PID.TID 0000.0001)           User time:   33.3942234516144
(PID.TID 0000.0001)         System time:  0.000000000000000E+000
(PID.TID 0000.0001)     Wall clock time:   43.6309890747070
(PID.TID 0000.0001)          No. starts:          15
(PID.TID 0000.0001)           No. stops:          15
(PID.TID 0000.0001)   Seconds in section "DO_STATEVARS_DIAGS  [FORWARD_STEP]":
(PID.TID 0000.0001)           User time:  0.831343650817871
(PID.TID 0000.0001)         System time:  0.000000000000000E+000
(PID.TID 0000.0001)     Wall clock time:  0.834913492202759
(PID.TID 0000.0001)          No. starts:          45
(PID.TID 0000.0001)           No. stops:          45
(PID.TID 0000.0001)   Seconds in section "LOAD_FIELDS_DRIVER  [FORWARD_STEP]":
(PID.TID 0000.0001)           User time:  0.287864685058594
(PID.TID 0000.0001)         System time:  0.000000000000000E+000
(PID.TID 0000.0001)     Wall clock time:   1.18119859695435
(PID.TID 0000.0001)          No. starts:          15
(PID.TID 0000.0001)           No. stops:          15
(PID.TID 0000.0001)   Seconds in section "EXF_GETFORCING     [LOAD_FLDS_DRIVER]":
(PID.TID 0000.0001)           User time:  0.287465572357178
(PID.TID 0000.0001)         System time:  0.000000000000000E+000
(PID.TID 0000.0001)     Wall clock time:   1.18079376220703
(PID.TID 0000.0001)          No. starts:          15
(PID.TID 0000.0001)           No. stops:          15
(PID.TID 0000.0001)   Seconds in section "EXTERNAL_FLDS_LOAD [LOAD_FLDS_DRIVER]":
(PID.TID 0000.0001)           User time:  9.775161743164062E-005
(PID.TID 0000.0001)         System time:  0.000000000000000E+000
(PID.TID 0000.0001)     Wall clock time:  1.080036163330078E-004
(PID.TID 0000.0001)          No. starts:          15
(PID.TID 0000.0001)           No. stops:          15
(PID.TID 0000.0001)   Seconds in section "DO_ATMOSPHERIC_PHYS [FORWARD_STEP]":
(PID.TID 0000.0001)           User time:  8.058547973632812E-005
(PID.TID 0000.0001)         System time:  0.000000000000000E+000
(PID.TID 0000.0001)     Wall clock time:  8.964538574218750E-005
(PID.TID 0000.0001)          No. starts:          15
(PID.TID 0000.0001)           No. stops:          15
(PID.TID 0000.0001)   Seconds in section "DO_OCEANIC_PHYS     [FORWARD_STEP]":
(PID.TID 0000.0001)           User time:   3.87207031250000
(PID.TID 0000.0001)         System time:  0.000000000000000E+000
(PID.TID 0000.0001)     Wall clock time:   3.93763875961304
(PID.TID 0000.0001)          No. starts:          15
(PID.TID 0000.0001)           No. stops:          15
(PID.TID 0000.0001)   Seconds in section "KPP_CALC [DO_OCEANIC_PHYS]":
(PID.TID 0000.0001)           User time:   3.34080862998962
(PID.TID 0000.0001)         System time:  0.000000000000000E+000
(PID.TID 0000.0001)     Wall clock time:   3.38947606086731
(PID.TID 0000.0001)          No. starts:          15
(PID.TID 0000.0001)           No. stops:          15
(PID.TID 0000.0001)   Seconds in section "DYNAMICS            [FORWARD_STEP]":
(PID.TID 0000.0001)           User time:   10.1257388591766
(PID.TID 0000.0001)         System time:  0.000000000000000E+000
(PID.TID 0000.0001)     Wall clock time:   10.1793107986450
(PID.TID 0000.0001)          No. starts:          15
(PID.TID 0000.0001)           No. stops:          15
(PID.TID 0000.0001)   Seconds in section "UPDATE_SURF_DR      [FORWARD_STEP]":
(PID.TID 0000.0001)           User time:  7.939147949218750E-002
(PID.TID 0000.0001)         System time:  0.000000000000000E+000
(PID.TID 0000.0001)     Wall clock time:  8.065938949584961E-002
(PID.TID 0000.0001)          No. starts:          15
(PID.TID 0000.0001)           No. stops:          15
(PID.TID 0000.0001)   Seconds in section "SOLVE_FOR_PRESSURE  [FORWARD_STEP]":
(PID.TID 0000.0001)           User time:   1.19030761718750
(PID.TID 0000.0001)         System time:  0.000000000000000E+000
(PID.TID 0000.0001)     Wall clock time:   1.19569778442383
(PID.TID 0000.0001)          No. starts:          15
(PID.TID 0000.0001)           No. stops:          15
(PID.TID 0000.0001)   Seconds in section "MOM_CORRECTION_STEP [FORWARD_STEP]":
(PID.TID 0000.0001)           User time:  0.212579727172852
(PID.TID 0000.0001)         System time:  0.000000000000000E+000
(PID.TID 0000.0001)     Wall clock time:  0.212689638137817
(PID.TID 0000.0001)          No. starts:          15
(PID.TID 0000.0001)           No. stops:          15
(PID.TID 0000.0001)   Seconds in section "INTEGR_CONTINUITY   [FORWARD_STEP]":
(PID.TID 0000.0001)           User time:  0.288956642150879
(PID.TID 0000.0001)         System time:  0.000000000000000E+000
(PID.TID 0000.0001)     Wall clock time:  0.289278268814087
(PID.TID 0000.0001)          No. starts:          15
(PID.TID 0000.0001)           No. stops:          15
(PID.TID 0000.0001)   Seconds in section "BLOCKING_EXCHANGES  [FORWARD_STEP]":
(PID.TID 0000.0001)           User time:  0.925132751464844
(PID.TID 0000.0001)         System time:  0.000000000000000E+000
(PID.TID 0000.0001)     Wall clock time:  0.925615310668945
(PID.TID 0000.0001)          No. starts:          30
(PID.TID 0000.0001)           No. stops:          30
(PID.TID 0000.0001)   Seconds in section "THERMODYNAMICS      [FORWARD_STEP]":
(PID.TID 0000.0001)           User time:   6.04929447174072
(PID.TID 0000.0001)         System time:  0.000000000000000E+000
(PID.TID 0000.0001)     Wall clock time:   6.10270071029663
(PID.TID 0000.0001)          No. starts:          15
(PID.TID 0000.0001)           No. stops:          15
(PID.TID 0000.0001)   Seconds in section "TRC_CORRECTION_STEP [FORWARD_STEP]":
(PID.TID 0000.0001)           User time:  8.726119995117188E-005
(PID.TID 0000.0001)         System time:  0.000000000000000E+000
(PID.TID 0000.0001)     Wall clock time:  8.273124694824219E-005
(PID.TID 0000.0001)          No. starts:          15
(PID.TID 0000.0001)           No. stops:          15
(PID.TID 0000.0001)   Seconds in section "MONITOR             [FORWARD_STEP]":
(PID.TID 0000.0001)           User time:   1.05900239944458
(PID.TID 0000.0001)         System time:  0.000000000000000E+000
(PID.TID 0000.0001)     Wall clock time:   1.13194537162781
(PID.TID 0000.0001)          No. starts:          15
(PID.TID 0000.0001)           No. stops:          15
(PID.TID 0000.0001)   Seconds in section "DO_THE_MODEL_IO     [FORWARD_STEP]":
(PID.TID 0000.0001)           User time:   3.98190259933472
(PID.TID 0000.0001)         System time:  0.000000000000000E+000
(PID.TID 0000.0001)     Wall clock time:   7.17359232902527
(PID.TID 0000.0001)          No. starts:          15
(PID.TID 0000.0001)           No. stops:          15
(PID.TID 0000.0001)   Seconds in section "DO_WRITE_PICKUP     [FORWARD_STEP]":
(PID.TID 0000.0001)           User time:   4.48817968368530
(PID.TID 0000.0001)         System time:  0.000000000000000E+000
(PID.TID 0000.0001)     Wall clock time:   10.3837013244629
(PID.TID 0000.0001)          No. starts:          15
(PID.TID 0000.0001)           No. stops:          15
(PID.TID 0000.0001) // ======================================================
(PID.TID 0000.0001) // Tile <-> Tile communication statistics
(PID.TID 0000.0001) // ======================================================
(PID.TID 0000.0001) // o Tile number: 000001
(PID.TID 0000.0001) //         No. X exchanges =              0
(PID.TID 0000.0001) //            Max. X spins =              0
(PID.TID 0000.0001) //            Min. X spins =     1000000000
(PID.TID 0000.0001) //          Total. X spins =              0
(PID.TID 0000.0001) //            Avg. X spins =       0.00E+00
(PID.TID 0000.0001) //         No. Y exchanges =              0
(PID.TID 0000.0001) //            Max. Y spins =              0
(PID.TID 0000.0001) //            Min. Y spins =     1000000000
(PID.TID 0000.0001) //          Total. Y spins =              0
(PID.TID 0000.0001) //            Avg. Y spins =       0.00E+00
(PID.TID 0000.0001) // o Thread number: 000001
(PID.TID 0000.0001) //            No. barriers =          72282
(PID.TID 0000.0001) //      Max. barrier spins =              1
(PID.TID 0000.0001) //      Min. barrier spins =              1
(PID.TID 0000.0001) //     Total barrier spins =          72282
(PID.TID 0000.0001) //      Avg. barrier spins =       1.00E+00
PROGRAM MAIN: Execution ended Normally
