(PID.TID 0000.0001) 
(PID.TID 0000.0001) // ======================================================
(PID.TID 0000.0001) //                      MITgcm UV
(PID.TID 0000.0001) //                      =========
(PID.TID 0000.0001) // ======================================================
(PID.TID 0000.0001) // execution environment starting up...
(PID.TID 0000.0001) 
(PID.TID 0000.0001) // MITgcmUV version:  checkpoint67c
(PID.TID 0000.0001) // Build user:        dmenemen
(PID.TID 0000.0001) // Build host:        r15i6n12
(PID.TID 0000.0001) // Build date:        Fri Jul 27 03:41:11 PDT 2018
(PID.TID 0000.0001) 
(PID.TID 0000.0001) // =======================================================
(PID.TID 0000.0001) // Execution Environment parameter file "eedata"
(PID.TID 0000.0001) // =======================================================
(PID.TID 0000.0001) ># Example "eedata" file
(PID.TID 0000.0001) ># Lines beginning "#" are comments
(PID.TID 0000.0001) ># nTx - No. threads per process in X
(PID.TID 0000.0001) ># nTy - No. threads per process in Y
(PID.TID 0000.0001) > &EEPARMS
(PID.TID 0000.0001) > nTx=1,
(PID.TID 0000.0001) > nTy=1,
(PID.TID 0000.0001) ># debugMode=.TRUE.,
(PID.TID 0000.0001) > /
(PID.TID 0000.0001) ># Note: Some systems use & as the
(PID.TID 0000.0001) ># namelist terminator. Other systems
(PID.TID 0000.0001) ># use a / character (as shown here).
(PID.TID 0000.0001) 
(PID.TID 0000.0001) // =======================================================
(PID.TID 0000.0001) // Computational Grid Specification ( see files "SIZE.h" )
(PID.TID 0000.0001) //                                  ( and "eedata"       )
(PID.TID 0000.0001) // =======================================================
(PID.TID 0000.0001)      nPx =   24 ; /* No. processes in X */
(PID.TID 0000.0001)      nPy =    6 ; /* No. processes in Y */
(PID.TID 0000.0001)      nSx =    1 ; /* No. tiles in X per process */
(PID.TID 0000.0001)      nSy =    1 ; /* No. tiles in Y per process */
(PID.TID 0000.0001)      sNx =   90 ; /* Tile size in X */
(PID.TID 0000.0001)      sNy =   90 ; /* Tile size in Y */
(PID.TID 0000.0001)      OLx =    4 ; /* Tile overlap distance in X */
(PID.TID 0000.0001)      OLy =    4 ; /* Tile overlap distance in Y */
(PID.TID 0000.0001)      nTx =    1 ; /* No. threads in X per process */
(PID.TID 0000.0001)      nTy =    1 ; /* No. threads in Y per process */
(PID.TID 0000.0001)       Nr =  100 ; /* No. levels in the vertical   */
(PID.TID 0000.0001)       Nx = 2160 ; /* Total domain size in X ( = nPx*nSx*sNx ) */
(PID.TID 0000.0001)       Ny =  540 ; /* Total domain size in Y ( = nPy*nSy*sNy ) */
(PID.TID 0000.0001)   nTiles =    1 ; /* Total no. tiles per process ( = nSx*nSy ) */
(PID.TID 0000.0001)   nProcs =  144 ; /* Total no. processes ( = nPx*nPy ) */
(PID.TID 0000.0001) nThreads =    1 ; /* Total no. threads per process ( = nTx*nTy ) */
(PID.TID 0000.0001) usingMPI =    T ; /* Flag used to control whether MPI is in use */
(PID.TID 0000.0001)                   /*  note: To execute a program with MPI calls */
(PID.TID 0000.0001)                   /*  it must be launched appropriately e.g     */
(PID.TID 0000.0001)                   /*  "mpirun -np 64 ......"                    */
(PID.TID 0000.0001) useCoupler=    F ;/* Flag used to control communications with   */
(PID.TID 0000.0001)                   /*  other model components, through a coupler */
(PID.TID 0000.0001) debugMode =    F ; /* print debug msg. (sequence of S/R calls)  */
(PID.TID 0000.0001) printMapIncludesZeros=    F ; /* print zeros in Std.Output maps */
(PID.TID 0000.0001) maxLengthPrt1D=   65 /* maxLength of 1D array printed to StdOut */
(PID.TID 0000.0001) 
(PID.TID 0000.0001) ======= Starting MPI parallel Run =========
(PID.TID 0000.0001)  My Processor Name (len:  8 ) = r513i2n5
(PID.TID 0000.0001)  Located at (  0,  0) on processor grid (0: 23,0:  5)
(PID.TID 0000.0001)  Origin at  (     1,     1) on global grid (1:  2160,1:   540)
(PID.TID 0000.0001)  North neighbor = processor 0001
(PID.TID 0000.0001)  South neighbor = processor 0005
(PID.TID 0000.0001)   East neighbor = processor 0006
(PID.TID 0000.0001)   West neighbor = processor 0138
(PID.TID 0000.0001) // ======================================================
(PID.TID 0000.0001) // Mapping of tiles to threads
(PID.TID 0000.0001) // ======================================================
(PID.TID 0000.0001) // -o- Thread   1, tiles (   1:   1,   1:   1)
(PID.TID 0000.0001) 
(PID.TID 0000.0001) W2_READPARMS: opening data.exch2
(PID.TID 0000.0001)  OPEN_COPY_DATA_FILE: opening file data.exch2
(PID.TID 0000.0001) // =======================================================
(PID.TID 0000.0001) // Parameter file "data.exch2"
(PID.TID 0000.0001) // =======================================================
(PID.TID 0000.0001) ># EXCH2 Package: Wrapper-2 User Choice
(PID.TID 0000.0001) >#--------------------
(PID.TID 0000.0001) >#  preDefTopol   :: pre-defined Topology selector:
(PID.TID 0000.0001) >#                :: = 0 : topology defined from processing "data.exch2";
(PID.TID 0000.0001) >#                :: = 1 : simple, single facet topology;
(PID.TID 0000.0001) >#                :: = 2 : customized topology (w2_set_myown_facets)
(PID.TID 0000.0001) >#                :: = 3 : 6-facet Cube (3 face-dims: nRed, nGreen, nBlue).
(PID.TID 0000.0001) >#  dimsFacets    :: facet pair of dimensions (n1x,n1y, n2x,n2y ...)
(PID.TID 0000.0001) >#  facetEdgeLink :: Face-Edge connectivity map:
(PID.TID 0000.0001) >#    facetEdgeLink(i,j)=XX.1 : face(j)-edge(i) (i=1,2,3,4 <==> N,S,E,W)
(PID.TID 0000.0001) >#    is connected to Northern edge of face "XX" ; similarly,
(PID.TID 0000.0001) >#    = XX.2 : to Southern.E, XX.3 = Eastern.E, XX.4 = Western.E of face "XX"
(PID.TID 0000.0001) >#  blankList     :: List of "blank" tiles
(PID.TID 0000.0001) >#  W2_mapIO      :: global map IO selector (-1 = old type ; 0 = 1 long line in X
(PID.TID 0000.0001) >#                :: 1 = compact, mostly in Y dir)
(PID.TID 0000.0001) >#  W2_printMsg   :: option for information messages printing
(PID.TID 0000.0001) >#                :: <0 : write to log file ; =0 : minimum print ;
(PID.TID 0000.0001) >#                :: =1 : no duplicated print ; =2 : all processes do print
(PID.TID 0000.0001) >#--------------------
(PID.TID 0000.0001) > &W2_EXCH2_PARM01
(PID.TID 0000.0001) >  W2_printMsg= 0,
(PID.TID 0000.0001) >  W2_mapIO   = 1,
(PID.TID 0000.0001) >#
(PID.TID 0000.0001) >#-- 5 facets llc_270 topology (drop facet 6 and its connection):
(PID.TID 0000.0001) >  preDefTopol = 1,
(PID.TID 0000.0001) >  dimsFacets = 2160, 540,
(PID.TID 0000.0001) > &
(PID.TID 0000.0001) 
(PID.TID 0000.0001) W2_READPARMS: finished reading data.exch2
(PID.TID 0000.0001) W2_useE2ioLayOut=    T ;/* T: use Exch2 glob IO map; F: use model default */
(PID.TID 0000.0001) W2_mapIO        =   1 ; /* select option for Exch2 global-IO map */
(PID.TID 0000.0001) W2_printMsg     =   0 ; /* select option for printing information */
(PID.TID 0000.0001) ===== Start setting W2 TOPOLOGY:
(PID.TID 0000.0001) W2_E2SETUP: number of Active Tiles =     144
(PID.TID 0000.0001) W2_E2SETUP: number of Blank Tiles  =       0
(PID.TID 0000.0001) W2_E2SETUP: Total number of Tiles  =     144
(PID.TID 0000.0001) W2_SET_SINGLE_FACET: preDefTopol=  1 selected
(PID.TID 0000.0001) W2_E2SETUP: Total number of Facets =       1
(PID.TID 0000.0001) W2_SET_F2F_INDEX: index matrix for connected Facet-Edges:
(PID.TID 0000.0001) W2_SET_MAP_TILES: tile mapping within facet and global Map:
(PID.TID 0000.0001)  W2_mapIO = 2160 (=   24*sNx)
(PID.TID 0000.0001)  Global Map (IO): X-size=    2160 , Y-size=     540
(PID.TID 0000.0001) W2_SET_MAP_TILES: tile offset within facet and global Map:
- facet  1 : X-size=  2160 , Y-size=   540 ;  144 tiles (Tx,Ty=  24,   6)
(PID.TID 0000.0001) W2_SET_MAP_CUMSUM: setting Facet Matrix for CUMUL-SUM
 Facet Matrix for CUMUL-SUM (nFacets=   1, nActive=   1 ):
- facet  1 :  0  0 ,
(PID.TID 0000.0001) W2_SET_MAP_CUMSUM: done (skip Tile Matrix setting)
(PID.TID 0000.0001) W2_SET_TILE2TILES: tile neighbours and index connection:
(PID.TID 0000.0001) current Max.Nb.Neighbours (e.g., on tile    1 ) =  4
(PID.TID 0000.0001) ===== W2 TILE TOPOLOGY =====
(PID.TID 0000.0001)  TILE:     1 (bi,bj=   1   1 ), Nb of Neighbours =  4
(PID.TID 0000.0001)     NEIGHBOUR  1 = TILE   25 (n=  2) Comm = MSG (PROC=    2)
(PID.TID 0000.0001)     NEIGHBOUR  2 = TILE  121 (n=  1) Comm = MSG (PROC=    6)
(PID.TID 0000.0001)     NEIGHBOUR  3 = TILE    2 (n=  4) Comm = MSG (PROC=    7)
(PID.TID 0000.0001)     NEIGHBOUR  4 = TILE   24 (n=  3) Comm = MSG (PROC=  139)
(PID.TID 0000.0001) =====       setting W2 TOPOLOGY: Done
(PID.TID 0000.0001) 
(PID.TID 0000.0001)  INI_PARMS: opening model parameter file "data"
(PID.TID 0000.0001)  OPEN_COPY_DATA_FILE: opening file data
(PID.TID 0000.0001) // =======================================================
(PID.TID 0000.0001) // Parameter file "data"
(PID.TID 0000.0001) // =======================================================
(PID.TID 0000.0001) >### Data file with primary model parameters -----------------------------------
(PID.TID 0000.0001) >#
(PID.TID 0000.0001) >### Continuous equation parameters --------------------------------------------
(PID.TID 0000.0001) > &PARM01
(PID.TID 0000.0001) >## Reference temperatures and salinities for every vertical level.
(PID.TID 0000.0001) > tRef =  18.89, 18.89, 18.89, 18.89, 18.89, 18.87, 18.85, 18.82,
(PID.TID 0000.0001) >         18.80, 18.73, 18.63, 18.49, 18.28, 18.08, 17.86, 17.63,
(PID.TID 0000.0001) >         17.40, 17.18, 16.95, 16.73, 16.52, 16.31, 16.10, 15.89,
(PID.TID 0000.0001) >         15.69, 15.49, 15.28, 15.08, 14.88, 14.67, 14.47, 14.25,
(PID.TID 0000.0001) >         14.03, 13.80, 13.55, 13.29, 13.01, 12.73, 12.42, 12.11,
(PID.TID 0000.0001) >         11.78, 11.43, 11.07, 10.70, 10.31,  9.93,  9.53,  9.11,
(PID.TID 0000.0001) >          8.71,  8.29,  7.89,  7.51,  7.13,  6.78,  6.44,  6.11,
(PID.TID 0000.0001) >          5.81,  5.51,  5.23,  4.97,  4.73,  4.51,  4.30,  4.11,
(PID.TID 0000.0001) >          3.94,  3.78,  3.63,  3.50,  3.38,  3.25,  3.14,  3.04,
(PID.TID 0000.0001) >          2.94,  2.83,  2.74,  2.64,  2.54,  2.45,  2.36,  2.27,
(PID.TID 0000.0001) >          2.19,  2.10,  2.03,  1.95,  1.86,  1.78,  1.70,  1.63,
(PID.TID 0000.0001) >          1.55,  1.48,  1.41,  1.34,  1.27,  1.20,  1.13,  1.06,
(PID.TID 0000.0001) >          1.00,  0.96,  0.93,  0.91,
(PID.TID 0000.0001) > sRef =  34.84, 34.84, 34.84, 34.84, 34.84, 34.84, 34.85, 34.85,
(PID.TID 0000.0001) >         34.85, 34.86, 34.87, 34.88, 34.90, 34.91, 34.93, 34.95,
(PID.TID 0000.0001) >         34.96, 34.98, 34.99, 35.00, 35.01, 35.02, 35.03, 35.04,
(PID.TID 0000.0001) >         35.05, 35.06, 35.07, 35.07, 35.07, 35.07, 35.07, 35.07,
(PID.TID 0000.0001) >         35.07, 35.06, 35.05, 35.04, 35.03, 35.02, 35.01, 34.99,
(PID.TID 0000.0001) >         34.97, 34.95, 34.92, 34.90, 34.87, 34.84, 34.81, 34.78,
(PID.TID 0000.0001) >         34.75, 34.72, 34.69, 34.67, 34.65, 34.62, 34.61, 34.60,
(PID.TID 0000.0001) >         34.59, 34.59, 34.58, 34.59, 34.59, 34.60, 34.60, 34.61,
(PID.TID 0000.0001) >         34.62, 34.63, 34.64, 34.65, 34.66, 34.67, 34.67, 34.68,
(PID.TID 0000.0001) >         34.69, 34.70, 34.71, 34.71, 34.72, 34.72, 34.73, 34.73,
(PID.TID 0000.0001) >         34.73, 34.74, 34.74, 34.74, 34.74, 34.75, 34.74, 34.74,
(PID.TID 0000.0001) >         34.74, 34.74, 34.74, 34.74, 34.74, 34.74, 34.73, 34.73,
(PID.TID 0000.0001) >         34.73, 34.73, 34.73, 34.73,
(PID.TID 0000.0001) > rhonil        = 1029.,
(PID.TID 0000.0001) > rhoConstFresh = 1000.,
(PID.TID 0000.0001) > eosType = 'JMD95Z',
(PID.TID 0000.0001) >#
(PID.TID 0000.0001) >## Various prescriptions for viscosity and diffusivity.
(PID.TID 0000.0001) > viscAr     = 5.e-04,
(PID.TID 0000.0001) > viscA4Grid = 0.0,
(PID.TID 0000.0001) > diffKhT    = 0.E0,
(PID.TID 0000.0001) > diffKhS    = 0.E0,
(PID.TID 0000.0001) > diffK4T    = 0.E10,
(PID.TID 0000.0001) > diffK4S    = 0.E10,
(PID.TID 0000.0001) > diffKrT    = 1.0e-5,
(PID.TID 0000.0001) > diffKrS    = 1.0e-5,
(PID.TID 0000.0001) > bottomDragQuadratic = 0.002,
(PID.TID 0000.0001) > no_slip_sides     = .TRUE.,
(PID.TID 0000.0001) > no_slip_bottom    = .TRUE.,
(PID.TID 0000.0001) > implicitDiffusion = .TRUE.,
(PID.TID 0000.0001) > implicitViscosity = .TRUE.,
(PID.TID 0000.0001) ># horizontal momentum closure
(PID.TID 0000.0001) > viscC4Leith   = 2.0,
(PID.TID 0000.0001) > viscC4Leithd  = 2.0,
(PID.TID 0000.0001) > viscA4GridMax = 0.8,
(PID.TID 0000.0001) >#
(PID.TID 0000.0001) >## Parameters that control numerical methods like advection schemes and
(PID.TID 0000.0001) >#  treatment of the free-surface.
(PID.TID 0000.0001) > tempAdvScheme = 7,
(PID.TID 0000.0001) > saltAdvScheme = 7,
(PID.TID 0000.0001) > implicitFreeSurface     = .TRUE.,
(PID.TID 0000.0001) > staggerTimeStep         = .TRUE.,
(PID.TID 0000.0001) > exactConserv            = .TRUE.,
(PID.TID 0000.0001) > vectorInvariantMomentum = .TRUE.,
(PID.TID 0000.0001) > useAreaViscLength       = .TRUE.,
(PID.TID 0000.0001) > highOrderVorticity      = .TRUE.,
(PID.TID 0000.0001) > multiDimAdvection       = .TRUE.,
(PID.TID 0000.0001) >#
(PID.TID 0000.0001) >## These parameters seem to be associated with the external forcing.
(PID.TID 0000.0001) > convertFW2Salt = -1.,
(PID.TID 0000.0001) > temp_EvPrRn    =  0.,
(PID.TID 0000.0001) > useRealFreshWaterFlux = .FALSE.,
(PID.TID 0000.0001) > allowFreezing         = .FALSE.,
(PID.TID 0000.0001) >#
(PID.TID 0000.0001) >## Parameters associated with bathymetry specification.
(PID.TID 0000.0001) > hFacMin   = 0.2,
(PID.TID 0000.0001) > hFacMinDr = 5.,
(PID.TID 0000.0001) >#
(PID.TID 0000.0001) >## Parameters for reading, writing, and misc numerical details.
(PID.TID 0000.0001) > globalFiles     = .TRUE.,
(PID.TID 0000.0001) > useSingleCpuIO  = .TRUE.,
(PID.TID 0000.0001) > readBinaryPrec  = 32,
(PID.TID 0000.0001) > writeBinaryPrec = 32,
(PID.TID 0000.0001) > debuglevel      = 2,
(PID.TID 0000.0001) >#
(PID.TID 0000.0001) >## Unused parameters.
(PID.TID 0000.0001) ># gravity = 9.81,
(PID.TID 0000.0001) ># viscA4Grid = 2.0E-3,
(PID.TID 0000.0001) ># viscAhGrid = 2.5E-4,
(PID.TID 0000.0001) ># bottomDraglinear    = 1.E-3,
(PID.TID 0000.0001) ># Note: nonlinFreeSurf=1 with rStar=0 breaks the code.
(PID.TID 0000.0001) ># nonlinFreeSurf = 4,
(PID.TID 0000.0001) ># select_rStar   = 1,
(PID.TID 0000.0001) ># hFacInf   = 0.1,
(PID.TID 0000.0001) ># hFacSup   = 5.,
(PID.TID 0000.0001) ># implicSurfPress = 0.6,
(PID.TID 0000.0001) ># implicDiv2DFlow = 0.6,
(PID.TID 0000.0001) ># useSingleCpuInput = .TRUE.,
(PID.TID 0000.0001) ># set to eccov4, make sure minbathy=20m first
(PID.TID 0000.0001) ># debuglevel = -1,
(PID.TID 0000.0001) ># useJamartWetPoints = .TRUE.,
(PID.TID 0000.0001) ># writeBinaryPrec=64,
(PID.TID 0000.0001) > /
(PID.TID 0000.0001) >### Elliptic solver parameters ------------------------------------------------
(PID.TID 0000.0001) > &PARM02
(PID.TID 0000.0001) > cg2dMaxIters       = 1000,
(PID.TID 0000.0001) ># cg2dTargetResidual = 1.E-8,
(PID.TID 0000.0001) > cg2dTargetResWunit = 1e-18,
(PID.TID 0000.0001) >#
(PID.TID 0000.0001) >#cg2dMaxIters       = 100,
(PID.TID 0000.0001) >#cg2dTargetResidual = 1.E-5,
(PID.TID 0000.0001) > &
(PID.TID 0000.0001) >### Time stepping parameters --------------------------------------------------
(PID.TID 0000.0001) > &PARM03
(PID.TID 0000.0001) > deltaT      =    240.,
(PID.TID 0000.0001) > nIter0      =  0,
(PID.TID 0000.0001) > nTimeSteps  =  15,
(PID.TID 0000.0001) > pChkptFreq  = 864000.,
(PID.TID 0000.0001) > monitorFreq =   240.,
(PID.TID 0000.0001) > abEps       = 0.1,
(PID.TID 0000.0001) >## It is unclear what these specify.
(PID.TID 0000.0001) > pickupStrictlyMatch = .FALSE.,
(PID.TID 0000.0001) > forcing_In_AB       = .FALSE.,
(PID.TID 0000.0001) > momDissip_In_AB     = .FALSE.,
(PID.TID 0000.0001) > dumpInitAndLast     = .FALSE.,
(PID.TID 0000.0001) > /
(PID.TID 0000.0001) >### Gridding parameters -------------------------------------------------------
(PID.TID 0000.0001) > &PARM04
(PID.TID 0000.0001) > usingSphericalPolarGrid=.TRUE.,
(PID.TID 0000.0001) >## Specify the height of each vertical level.
(PID.TID 0000.0001) > delR =   5.00,   5.00,   5.00,   5.00,   5.00,   5.00,   5.00,   5.00,   5.00,
(PID.TID 0000.0001) >          5.00,   5.00,   5.00,   5.00,   5.00,   5.00,   5.01,   5.01,   5.02,
(PID.TID 0000.0001) >          5.04,   5.07,   5.12,   5.20,   5.31,   5.49,   5.72,   6.04,   6.45,
(PID.TID 0000.0001) >          6.97,   7.62,   8.42,   9.36,  10.46,  11.72,  13.13,  14.70,  16.40,
(PID.TID 0000.0001) >         18.24,  20.18,  22.21,  24.29,  26.43,  28.57,  30.71,  32.79,  34.82,
(PID.TID 0000.0001) >         36.76,  38.60,  40.30,  41.87,  43.28,  44.54,  45.64,  46.58,  47.38,
(PID.TID 0000.0001) >         48.03,  48.55,  48.96,  49.29,  49.53,  49.72,  49.90,  50.11,  50.41,
(PID.TID 0000.0001) >         50.92,  51.69,  52.87,  54.54,  56.79,  59.67,  63.16,  67.26,  71.83,
(PID.TID 0000.0001) >         76.83,  82.11,  87.61,  93.22,  98.91, 104.64, 110.38, 116.12, 121.87,
(PID.TID 0000.0001) >        127.63, 133.38, 139.12, 144.87, 150.63, 156.38, 162.12, 167.87, 173.63,
(PID.TID 0000.0001) >        179.38, 185.12, 190.87, 196.63, 202.38, 208.12, 213.87, 219.63, 225.38,
(PID.TID 0000.0001) >        231.12,
(PID.TID 0000.0001) > xgOrigin=-83.,
(PID.TID 0000.0001) > dxSpacing=0.041666666666667,
(PID.TID 0000.0001) > ygOrigin=26.650054931640625,
(PID.TID 0000.0001) > delYFile = 'delYFile',
(PID.TID 0000.0001) > /
(PID.TID 0000.0001) ># -----------------------------------------------------------------------------
(PID.TID 0000.0001) >### Bathymetry files and initial condition files
(PID.TID 0000.0001) > &PARM05
(PID.TID 0000.0001) > bathyFile       = 'bathy.bin',
(PID.TID 0000.0001) > hydrogThetaFile = 'T0_2160x540x100.bin',
(PID.TID 0000.0001) > hydrogSaltFile  = 'S0_2160x540x100.bin',
(PID.TID 0000.0001) > uVelInitFile    = 'U0_2160x540x100.bin',
(PID.TID 0000.0001) > vVelInitFile    = 'V0_2160x540x100.bin',
(PID.TID 0000.0001) ># diffKrFile  = 'diffkr_basin_v1m9EfC_llc1080.bin',
(PID.TID 0000.0001) ># viscA4Dfile = 'visc3DblendfromrunobcsCdiv1e6_08Mar2016_aste2160.bin',
(PID.TID 0000.0001) ># viscA4Zfile = 'visc3DblendfromrunobcsCdiv1e6_08Mar2016_aste2160.bin',
(PID.TID 0000.0001) > /
(PID.TID 0000.0001) 
(PID.TID 0000.0001)  INI_PARMS ; starts to read PARM01
(PID.TID 0000.0001)  INI_PARMS ; read PARM01 : OK
(PID.TID 0000.0001)  INI_PARMS ; starts to read PARM02
(PID.TID 0000.0001)  INI_PARMS ; read PARM02 : OK
(PID.TID 0000.0001)  INI_PARMS ; starts to read PARM03
(PID.TID 0000.0001)  INI_PARMS ; read PARM03 : OK
(PID.TID 0000.0001)  INI_PARMS ; starts to read PARM04
(PID.TID 0000.0001)  INI_PARMS ; read PARM04 : OK
(PID.TID 0000.0001)  INI_PARMS ; starts to read PARM05
(PID.TID 0000.0001)  INI_PARMS ; read PARM05 : OK
(PID.TID 0000.0001)  INI_PARMS: finished reading file "data"
(PID.TID 0000.0001)  PACKAGES_BOOT: opening data.pkg
(PID.TID 0000.0001)  OPEN_COPY_DATA_FILE: opening file data.pkg
(PID.TID 0000.0001) // =======================================================
(PID.TID 0000.0001) // Parameter file "data.pkg"
(PID.TID 0000.0001) // =======================================================
(PID.TID 0000.0001) ># Packages
(PID.TID 0000.0001) > &PACKAGES
(PID.TID 0000.0001) > useCAL         = .TRUE.,
(PID.TID 0000.0001) > useEXF         = .TRUE.,
(PID.TID 0000.0001) > useKPP         = .TRUE.,
(PID.TID 0000.0001) > useDiagnostics = .TRUE.,
(PID.TID 0000.0001) > useOBCS        = .TRUE.,
(PID.TID 0000.0001) ># useProfiles=.TRUE.,
(PID.TID 0000.0001) > /
(PID.TID 0000.0001) 
(PID.TID 0000.0001)  PACKAGES_BOOT: finished reading data.pkg
(PID.TID 0000.0001)  PACKAGES_BOOT: On/Off package Summary
 --------  pkgs with a standard "usePKG" On/Off switch in "data.pkg":  --------
 pkg/obcs                 compiled   and   used ( useOBCS                  = T )
 pkg/kpp                  compiled   and   used ( useKPP                   = T )
 pkg/cal                  compiled   and   used ( useCAL                   = T )
 pkg/exf                  compiled   and   used ( useEXF                   = T )
 pkg/diagnostics          compiled   and   used ( useDiagnostics           = T )
 -------- pkgs without standard "usePKG" On/Off switch in "data.pkg":  --------
 pkg/generic_advdiff      compiled   and   used ( useGAD                   = T )
 pkg/mom_common           compiled   and   used ( momStepping              = T )
 pkg/mom_vecinv           compiled   and   used ( +vectorInvariantMomentum = T )
 pkg/monitor              compiled   and   used ( monitorFreq > 0.         = T )
 pkg/debug                compiled but not used ( debugMode                = F )
 pkg/exch2                compiled   and   used
 pkg/rw                   compiled   and   used
 pkg/mdsio                compiled   and   used
(PID.TID 0000.0001)  PACKAGES_BOOT: End of package Summary
(PID.TID 0000.0001) 
(PID.TID 0000.0001) CAL_READPARMS: opening data.cal
(PID.TID 0000.0001)  OPEN_COPY_DATA_FILE: opening file data.cal
(PID.TID 0000.0001) // =======================================================
(PID.TID 0000.0001) // Parameter file "data.cal"
(PID.TID 0000.0001) // =======================================================
(PID.TID 0000.0001) >#
(PID.TID 0000.0001) ># *******************
(PID.TID 0000.0001) ># Calendar Parameters
(PID.TID 0000.0001) ># *******************
(PID.TID 0000.0001) > &CAL_NML
(PID.TID 0000.0001) > TheCalendar='gregorian',
(PID.TID 0000.0001) > startDate_1=20080101,
(PID.TID 0000.0001) > startDate_2=000000,
(PID.TID 0000.0001) > calendarDumps = .TRUE.,
(PID.TID 0000.0001) > &
(PID.TID 0000.0001) 
(PID.TID 0000.0001) CAL_READPARMS: finished reading data.cal
(PID.TID 0000.0001) EXF_READPARMS: opening data.exf
(PID.TID 0000.0001)  OPEN_COPY_DATA_FILE: opening file data.exf
(PID.TID 0000.0001) // =======================================================
(PID.TID 0000.0001) // Parameter file "data.exf"
(PID.TID 0000.0001) // =======================================================
(PID.TID 0000.0001) ># *********************
(PID.TID 0000.0001) ># External Forcing Data
(PID.TID 0000.0001) ># *********************
(PID.TID 0000.0001) >#
(PID.TID 0000.0001) > &EXF_NML_01
(PID.TID 0000.0001) >#
(PID.TID 0000.0001) > useAtmWind        = .TRUE.,
(PID.TID 0000.0001) >#
(PID.TID 0000.0001) >#TO COMBINE WITH ALLOW_ZENITH_ANGLE:
(PID.TID 0000.0001) ># exf_albedo        = 0.1,
(PID.TID 0000.0001) ># useExfZenIncoming = .TRUE.,
(PID.TID 0000.0001) ># select_ZenAlbedo  = 1,
(PID.TID 0000.0001) >##
(PID.TID 0000.0001) ># ocean_emissivity = 0.97,
(PID.TID 0000.0001) ># ice_emissivity = 0.95,
(PID.TID 0000.0001) ># snow_emissivity = 0.95,
(PID.TID 0000.0001) >#
(PID.TID 0000.0001) ># exf_albedo        = 0.1556,
(PID.TID 0000.0001) > exf_albedo        = 0.1,
(PID.TID 0000.0001) > exf_scal_BulkCdn  = 0.9997,
(PID.TID 0000.0001) > exf_iprec         = 32,
(PID.TID 0000.0001) > exf_iprec_obcs    = 32,
(PID.TID 0000.0001) > exf_yftype        = 'RL',
(PID.TID 0000.0001) > useExfYearlyFields= .TRUE.,
(PID.TID 0000.0001) > useExfCheckRange  = .FALSE.,
(PID.TID 0000.0001) > useRelativeWind   = .TRUE.,
(PID.TID 0000.0001) > &
(PID.TID 0000.0001) >#
(PID.TID 0000.0001) > &EXF_NML_02
(PID.TID 0000.0001) > precipfile        = 'jra55/jra55_rain',
(PID.TID 0000.0001) > atempfile         = 'jra55/jra55_tmp2m_degC',
(PID.TID 0000.0001) > aqhfile           = 'jra55/jra55_spfh2m',
(PID.TID 0000.0001) > swdownfile        = 'jra55/jra55_dsw',
(PID.TID 0000.0001) > lwdownfile        = 'jra55/jra55_dlw',
(PID.TID 0000.0001) > apressurefile     = 'jra55/jra55_pres',
(PID.TID 0000.0001) > tidePotfile       = 'tide',
(PID.TID 0000.0001) > uwindfile         = 'jra55/jra55_u10m',
(PID.TID 0000.0001) > vwindfile         = 'jra55/jra55_v10m',
(PID.TID 0000.0001) > runofffile        = 'runoff1p2472-360x180x12.bin',
(PID.TID 0000.0001) >#
(PID.TID 0000.0001) > precipstartdate1  = 19790101,
(PID.TID 0000.0001) > precipstartdate2  = 013000,
(PID.TID 0000.0001) > precipperiod      = 10800.0,
(PID.TID 0000.0001) > atempstartdate1   = 19790101,
(PID.TID 0000.0001) > atempstartdate2   = 000000,
(PID.TID 0000.0001) > atempperiod       = 10800.0,
(PID.TID 0000.0001) > aqhstartdate1     = 19790101,
(PID.TID 0000.0001) > aqhstartdate2     = 000000,
(PID.TID 0000.0001) > aqhperiod         = 10800.0,
(PID.TID 0000.0001) > swdownstartdate1  = 19790101,
(PID.TID 0000.0001) > swdownstartdate2  = 013000,
(PID.TID 0000.0001) > swdownperiod      = 10800.0,
(PID.TID 0000.0001) > lwdownstartdate1  = 19790101,
(PID.TID 0000.0001) > lwdownstartdate2  = 013000,
(PID.TID 0000.0001) > lwdownperiod      = 10800.0,
(PID.TID 0000.0001) > apressurestartdate1  = 19790101,
(PID.TID 0000.0001) > apressurestartdate2  = 000000,
(PID.TID 0000.0001) > apressureperiod      = 10800.0,
(PID.TID 0000.0001) > tidePotstartdate1  = 19790101,
(PID.TID 0000.0001) > tidePotstartdate2  = 000000,
(PID.TID 0000.0001) > tidePotperiod      = 3600.0,
(PID.TID 0000.0001) > uwindstartdate1   = 19790101,
(PID.TID 0000.0001) > uwindstartdate2   = 000000,
(PID.TID 0000.0001) > uwindperiod       = 10800.0,
(PID.TID 0000.0001) > vwindstartdate1   = 19790101,
(PID.TID 0000.0001) > vwindstartdate2   = 000000,
(PID.TID 0000.0001) > vwindperiod       = 10800.0,
(PID.TID 0000.0001) ># "*period=-12" specifies monthly-mean forcing
(PID.TID 0000.0001) > runoffperiod      = -12,
(PID.TID 0000.0001) > &
(PID.TID 0000.0001) >#
(PID.TID 0000.0001) > &EXF_NML_03
(PID.TID 0000.0001) > exf_offset_atemp  = 273.15,
(PID.TID 0000.0001) > exf_inscal_swdown = -1.,
(PID.TID 0000.0001) > exf_inscal_lwdown = -1.,
(PID.TID 0000.0001) ># 1/365/24/3600 yr/s conversion, runoff [m/yr --> m/s]
(PID.TID 0000.0001) > exf_inscal_runoff = 3.1710e-08,
(PID.TID 0000.0001) > &
(PID.TID 0000.0001) >#
(PID.TID 0000.0001) > &EXF_NML_04
(PID.TID 0000.0001) >#if in global lat/lon, need interp, comment out runoff_interpMethod
(PID.TID 0000.0001) >#if already in aste compact format, set runoff_interpMethod=0
(PID.TID 0000.0001) ># runoff_interpMethod = 0,
(PID.TID 0000.0001) >#
(PID.TID 0000.0001) > precip_lon0       = 0.0D0,
(PID.TID 0000.0001) > precip_lon_inc    = 0.5625D0,
(PID.TID 0000.0001) > precip_lat0       = -89.57009D0,
(PID.TID 0000.0001) > precip_lat_inc    = 0.556914D0, 0.560202D0, 0.560946D0, 0.561227D0, 0.561363D0,
(PID.TID 0000.0001) >                     0.561440D0, 0.561487D0, 0.561518D0, 0.561539D0, 0.561554D0,
(PID.TID 0000.0001) >                     0.561566D0, 0.561575D0, 0.561582D0, 0.561587D0, 0.561592D0,
(PID.TID 0000.0001) >                     289*0.561619268965519,
(PID.TID 0000.0001) >                     0.561592D0, 0.561587D0, 0.561582D0, 0.561575D0, 0.561566D0,
(PID.TID 0000.0001) >                     0.561554D0, 0.561539D0, 0.561518D0, 0.561487D0, 0.561440D0,
(PID.TID 0000.0001) >                     0.561363D0, 0.561227D0, 0.560946D0, 0.560202D0, 0.556914D0,
(PID.TID 0000.0001) > precip_nlon       = 640,
(PID.TID 0000.0001) > precip_nlat       = 320,
(PID.TID 0000.0001) >#
(PID.TID 0000.0001) > atemp_lon0        = 0.0D0,
(PID.TID 0000.0001) > atemp_lon_inc     = 0.5625D0,
(PID.TID 0000.0001) > atemp_lat0        = -89.57009D0,
(PID.TID 0000.0001) > atemp_lat_inc     = 0.556914D0, 0.560202D0, 0.560946D0, 0.561227D0, 0.561363D0,
(PID.TID 0000.0001) >                     0.561440D0, 0.561487D0, 0.561518D0, 0.561539D0, 0.561554D0,
(PID.TID 0000.0001) >                     0.561566D0, 0.561575D0, 0.561582D0, 0.561587D0, 0.561592D0,
(PID.TID 0000.0001) >                     289*0.561619268965519,
(PID.TID 0000.0001) >                     0.561592D0, 0.561587D0, 0.561582D0, 0.561575D0, 0.561566D0,
(PID.TID 0000.0001) >                     0.561554D0, 0.561539D0, 0.561518D0, 0.561487D0, 0.561440D0,
(PID.TID 0000.0001) >                     0.561363D0, 0.561227D0, 0.560946D0, 0.560202D0, 0.556914D0,
(PID.TID 0000.0001) > atemp_nlon        = 640,
(PID.TID 0000.0001) > atemp_nlat        = 320,
(PID.TID 0000.0001) >#
(PID.TID 0000.0001) > aqh_lon0          = 0.0D0,
(PID.TID 0000.0001) > aqh_lon_inc       = 0.5625D0,
(PID.TID 0000.0001) > aqh_lat0          = -89.57009D0,
(PID.TID 0000.0001) > aqh_lat_inc       = 0.556914D0, 0.560202D0, 0.560946D0, 0.561227D0, 0.561363D0,
(PID.TID 0000.0001) >                     0.561440D0, 0.561487D0, 0.561518D0, 0.561539D0, 0.561554D0,
(PID.TID 0000.0001) >                     0.561566D0, 0.561575D0, 0.561582D0, 0.561587D0, 0.561592D0,
(PID.TID 0000.0001) >                     289*0.561619268965519,
(PID.TID 0000.0001) >                     0.561592D0, 0.561587D0, 0.561582D0, 0.561575D0, 0.561566D0,
(PID.TID 0000.0001) >                     0.561554D0, 0.561539D0, 0.561518D0, 0.561487D0, 0.561440D0,
(PID.TID 0000.0001) >                     0.561363D0, 0.561227D0, 0.560946D0, 0.560202D0, 0.556914D0,
(PID.TID 0000.0001) > aqh_nlon          = 640,
(PID.TID 0000.0001) > aqh_nlat          = 320,
(PID.TID 0000.0001) >#
(PID.TID 0000.0001) > swdown_lon0       = 0.0D0,
(PID.TID 0000.0001) > swdown_lon_inc    = 0.5625D0,
(PID.TID 0000.0001) > swdown_lat0       = -89.57009D0,
(PID.TID 0000.0001) > swdown_lat_inc    = 0.556914D0, 0.560202D0, 0.560946D0, 0.561227D0, 0.561363D0,
(PID.TID 0000.0001) >                     0.561440D0, 0.561487D0, 0.561518D0, 0.561539D0, 0.561554D0,
(PID.TID 0000.0001) >                     0.561566D0, 0.561575D0, 0.561582D0, 0.561587D0, 0.561592D0,
(PID.TID 0000.0001) >                     289*0.561619268965519,
(PID.TID 0000.0001) >                     0.561592D0, 0.561587D0, 0.561582D0, 0.561575D0, 0.561566D0,
(PID.TID 0000.0001) >                     0.561554D0, 0.561539D0, 0.561518D0, 0.561487D0, 0.561440D0,
(PID.TID 0000.0001) >                     0.561363D0, 0.561227D0, 0.560946D0, 0.560202D0, 0.556914D0,
(PID.TID 0000.0001) > swdown_nlon       = 640,
(PID.TID 0000.0001) > swdown_nlat       = 320,
(PID.TID 0000.0001) >#
(PID.TID 0000.0001) > lwdown_lon0       = 0.0D0,
(PID.TID 0000.0001) > lwdown_lon_inc    = 0.5625D0,
(PID.TID 0000.0001) > lwdown_lat0       = -89.57009D0,
(PID.TID 0000.0001) > lwdown_lat_inc    = 0.556914D0, 0.560202D0, 0.560946D0, 0.561227D0, 0.561363D0,
(PID.TID 0000.0001) >                     0.561440D0, 0.561487D0, 0.561518D0, 0.561539D0, 0.561554D0,
(PID.TID 0000.0001) >                     0.561566D0, 0.561575D0, 0.561582D0, 0.561587D0, 0.561592D0,
(PID.TID 0000.0001) >                     289*0.561619268965519,
(PID.TID 0000.0001) >                     0.561592D0, 0.561587D0, 0.561582D0, 0.561575D0, 0.561566D0,
(PID.TID 0000.0001) >                     0.561554D0, 0.561539D0, 0.561518D0, 0.561487D0, 0.561440D0,
(PID.TID 0000.0001) >                     0.561363D0, 0.561227D0, 0.560946D0, 0.560202D0, 0.556914D0,
(PID.TID 0000.0001) > lwdown_nlon       = 640,
(PID.TID 0000.0001) > lwdown_nlat       = 320,
(PID.TID 0000.0001) >#
(PID.TID 0000.0001) > apressure_lon0       = 0.0D0,
(PID.TID 0000.0001) > apressure_lon_inc    = 0.5625D0,
(PID.TID 0000.0001) > apressure_lat0       = -89.57009D0,
(PID.TID 0000.0001) > apressure_lat_inc    = 0.556914D0, 0.560202D0, 0.560946D0, 0.561227D0, 0.561363D0,
(PID.TID 0000.0001) >                     0.561440D0, 0.561487D0, 0.561518D0, 0.561539D0, 0.561554D0,
(PID.TID 0000.0001) >                     0.561566D0, 0.561575D0, 0.561582D0, 0.561587D0, 0.561592D0,
(PID.TID 0000.0001) >                     289*0.561619268965519,
(PID.TID 0000.0001) >                     0.561592D0, 0.561587D0, 0.561582D0, 0.561575D0, 0.561566D0,
(PID.TID 0000.0001) >                     0.561554D0, 0.561539D0, 0.561518D0, 0.561487D0, 0.561440D0,
(PID.TID 0000.0001) >                     0.561363D0, 0.561227D0, 0.560946D0, 0.560202D0, 0.556914D0,
(PID.TID 0000.0001) > apressure_nlon       = 640,
(PID.TID 0000.0001) > apressure_nlat       = 320,
(PID.TID 0000.0001) >#
(PID.TID 0000.0001) > tidePot_lon0       = 0.0D0,
(PID.TID 0000.0001) > tidePot_lon_inc    = 1.0D0,
(PID.TID 0000.0001) > tidePot_lat0       = -90.0D0,
(PID.TID 0000.0001) > tidePot_lat_inc    = 180*1.0D0,
(PID.TID 0000.0001) > tidePot_nlon       = 360,
(PID.TID 0000.0001) > tidePot_nlat       = 181,
(PID.TID 0000.0001) >#
(PID.TID 0000.0001) > uwind_lon0        = 0.0D0,
(PID.TID 0000.0001) > uwind_lon_inc     = 0.5625D0,
(PID.TID 0000.0001) > uwind_lat0        = -89.57009D0,
(PID.TID 0000.0001) > uwind_lat_inc     = 0.556914D0, 0.560202D0, 0.560946D0, 0.561227D0, 0.561363D0,
(PID.TID 0000.0001) >                     0.561440D0, 0.561487D0, 0.561518D0, 0.561539D0, 0.561554D0,
(PID.TID 0000.0001) >                     0.561566D0, 0.561575D0, 0.561582D0, 0.561587D0, 0.561592D0,
(PID.TID 0000.0001) >                     289*0.561619268965519,
(PID.TID 0000.0001) >                     0.561592D0, 0.561587D0, 0.561582D0, 0.561575D0, 0.561566D0,
(PID.TID 0000.0001) >                     0.561554D0, 0.561539D0, 0.561518D0, 0.561487D0, 0.561440D0,
(PID.TID 0000.0001) >                     0.561363D0, 0.561227D0, 0.560946D0, 0.560202D0, 0.556914D0,
(PID.TID 0000.0001) > uwind_nlon        = 640,
(PID.TID 0000.0001) > uwind_nlat        = 320,
(PID.TID 0000.0001) >#
(PID.TID 0000.0001) > vwind_lon0        = 0.0D0,
(PID.TID 0000.0001) > vwind_lon_inc     = 0.5625D0,
(PID.TID 0000.0001) > vwind_lat0        = -89.57009D0,
(PID.TID 0000.0001) > vwind_lat_inc     = 0.556914D0, 0.560202D0, 0.560946D0, 0.561227D0, 0.561363D0,
(PID.TID 0000.0001) >                     0.561440D0, 0.561487D0, 0.561518D0, 0.561539D0, 0.561554D0,
(PID.TID 0000.0001) >                     0.561566D0, 0.561575D0, 0.561582D0, 0.561587D0, 0.561592D0,
(PID.TID 0000.0001) >                     289*0.561619268965519,
(PID.TID 0000.0001) >                     0.561592D0, 0.561587D0, 0.561582D0, 0.561575D0, 0.561566D0,
(PID.TID 0000.0001) >                     0.561554D0, 0.561539D0, 0.561518D0, 0.561487D0, 0.561440D0,
(PID.TID 0000.0001) >                     0.561363D0, 0.561227D0, 0.560946D0, 0.560202D0, 0.556914D0,
(PID.TID 0000.0001) > vwind_nlon        = 640,
(PID.TID 0000.0001) > vwind_nlat        = 320,
(PID.TID 0000.0001) >#
(PID.TID 0000.0001) > runoff_lon0       = 0.50D0,
(PID.TID 0000.0001) > runoff_lon_inc    = 1.0D0,
(PID.TID 0000.0001) > runoff_lat0       = -89.5D0,
(PID.TID 0000.0001) > runoff_lat_inc    = 179*1.,
(PID.TID 0000.0001) > runoff_nlon       = 360,
(PID.TID 0000.0001) > runoff_nlat       = 180,
(PID.TID 0000.0001) > &
(PID.TID 0000.0001) >#
(PID.TID 0000.0001) > &EXF_NML_OBCS
(PID.TID 0000.0001) >  obcsSstartdate1   = 20071215,
(PID.TID 0000.0001) >  obcsSstartdate2   = 060000,
(PID.TID 0000.0001) >  obcsSperiod       = 2629800.0,
(PID.TID 0000.0001) >#
(PID.TID 0000.0001) >  obcsNstartdate1   = 20071215,
(PID.TID 0000.0001) >  obcsNstartdate2   = 060000,
(PID.TID 0000.0001) >  obcsNperiod       = 2629800.0,
(PID.TID 0000.0001) > &
(PID.TID 0000.0001) 
(PID.TID 0000.0001) EXF_READPARMS: reading EXF_NML_01
(PID.TID 0000.0001) EXF_READPARMS: reading EXF_NML_02
(PID.TID 0000.0001) EXF_READPARMS: reading EXF_NML_03
(PID.TID 0000.0001) EXF_READPARMS: reading EXF_NML_04
(PID.TID 0000.0001) EXF_READPARMS: reading EXF_NML_OBCS
(PID.TID 0000.0001) EXF_READPARMS: finished reading data.exf
(PID.TID 0000.0001)  OBCS_READPARMS: opening data.obcs
(PID.TID 0000.0001)  OPEN_COPY_DATA_FILE: opening file data.obcs
(PID.TID 0000.0001) // =======================================================
(PID.TID 0000.0001) // Parameter file "data.obcs"
(PID.TID 0000.0001) // =======================================================
(PID.TID 0000.0001) ># ***************
(PID.TID 0000.0001) ># Open boundaries
(PID.TID 0000.0001) ># ***************
(PID.TID 0000.0001) > &OBCS_PARM01
(PID.TID 0000.0001) >OB_Jnorth = 2160*537,
(PID.TID 0000.0001) >OB_Jsouth = 2160*8,
(PID.TID 0000.0001) >#
(PID.TID 0000.0001) > useOBCSprescribe=.TRUE.,
(PID.TID 0000.0001) ># useOBCSsponge=.true.,
(PID.TID 0000.0001) > OBCS_monSelect = 3,
(PID.TID 0000.0001) ># >0: use 1rst O. upwind adv-scheme @ OB (=1: only if outflow)
(PID.TID 0000.0001) > OBCS_u1_adv_T = 1,
(PID.TID 0000.0001) > OBCS_u1_adv_S = 1,
(PID.TID 0000.0001) >#
(PID.TID 0000.0001) > OBSsFile='OBSs_2160x100x26.bin',
(PID.TID 0000.0001) > OBStFile='OBSt_2160x100x26.bin',
(PID.TID 0000.0001) > OBSuFile='OBSu_2160x100x26.bin',
(PID.TID 0000.0001) > OBSvFile='OBSv_2160x100x26.bin',
(PID.TID 0000.0001) >#
(PID.TID 0000.0001) > OBNsFile='OBNs_2160x100x26.bin',
(PID.TID 0000.0001) > OBNtFile='OBNt_2160x100x26.bin',
(PID.TID 0000.0001) > OBNuFile='OBNu_2160x100x26.bin',
(PID.TID 0000.0001) > OBNvFile='OBNv_2160x100x26.bin',
(PID.TID 0000.0001) ># Balancing
(PID.TID 0000.0001) > useOBCSbalance = .TRUE.,
(PID.TID 0000.0001) > OBCS_balanceFacN = -1,
(PID.TID 0000.0001) > OBCS_balanceFacS = -1,
(PID.TID 0000.0001) >## *****************************************
(PID.TID 0000.0001) >## Tidal BC parameters
(PID.TID 0000.0001) >## *****************************************
(PID.TID 0000.0001) > useOBCStides = .TRUE.,
(PID.TID 0000.0001) >##components   = M2       S2     N2       K2       K1      O1       P1       Q1       Mf         Mm
(PID.TID 0000.0001) >##periods (hr) = 12.4206  12     12.6583  11.9672  23.9345 25.8193  24.0659  26.8684  327.8599   661.31
(PID.TID 0000.0001) >##period(sec)  = 44714.165 43200.001 45570.054 43082.05 86164.077 92949.636 86637.2 96726.086 1180295.5 2380715.9
(PID.TID 0000.0001) >##components      m2        s2        n2        k2        k1        o1        p1        q1        mf        mm        m4        ms4       mn4
(PID.TID 0000.0001) >##period (hr): 12.420601 12.000000 12.658348 11.967236 23.934466 25.819343 24.065889 26.868357 327.859874 661.309962 6.210303 6.103339 6.269178
(PID.TID 0000.0001) >##period (s):  44714.165192 43200.001287 45570.053512 43082.050319 86164.077005 92949.635701 86637.199772 96726.085703 1180295.545550 2380715.863587 22357.090551 21972.021930 22569.042448
(PID.TID 0000.0001) > tidalPeriod  = 44714.165 43200.001 45570.054 43082.050 86164.077 92949.636 86637.200 96726.086 1180295.546 2380715.864 22357.091 21972.022 22569.042,
(PID.TID 0000.0001) > OBSamFile='OBSam_2160x13.bin',
(PID.TID 0000.0001) > OBNamFile='OBNam_2160x13.bin',
(PID.TID 0000.0001) > OBSphFile='OBSph_2160x13.bin',
(PID.TID 0000.0001) > OBNphFile='OBNph_2160x13.bin',
(PID.TID 0000.0001) > &
(PID.TID 0000.0001) ># *****************************************
(PID.TID 0000.0001) ># Sponge Layer Parameters.
(PID.TID 0000.0001) ># *****************************************
(PID.TID 0000.0001) > &OBCS_PARM03
(PID.TID 0000.0001) ># Urelaxobcsinner=2629800.E0,
(PID.TID 0000.0001) ># Urelaxobcsbound=43200.E0,
(PID.TID 0000.0001) >#
(PID.TID 0000.0001) ># Vrelaxobcsinner=2629800.E0,
(PID.TID 0000.0001) ># Vrelaxobcsbound=43200.E0,
(PID.TID 0000.0001) >#
(PID.TID 0000.0001) ># spongeThickness=16,
(PID.TID 0000.0001) > &
(PID.TID 0000.0001) 
(PID.TID 0000.0001)  OBCS_READPARMS: finished reading data.obcs
(PID.TID 0000.0001)  OB_indexUnset = /* unset OB index value (i.e. no OB) */
(PID.TID 0000.0001)                       0
(PID.TID 0000.0001)     ;
(PID.TID 0000.0001)  Northern OB global indices : OB_Jnorth =
(PID.TID 0000.0001)  2160 @      537                            /* I =  1:*** */
(PID.TID 0000.0001)  Southern OB global indices : OB_Jsouth =
(PID.TID 0000.0001)  2160 @        8                            /* I =  1:*** */
(PID.TID 0000.0001)  Eastern  OB global indices : OB_Ieast =
(PID.TID 0000.0001)   540 @        0                            /* J =  1:540 */
(PID.TID 0000.0001)  Western  OB global indices : OB_Iwest =
(PID.TID 0000.0001)   540 @        0                            /* J =  1:540 */
(PID.TID 0000.0001) 
(PID.TID 0000.0001)  KPP_READPARMS: opening data.kpp
(PID.TID 0000.0001)  OPEN_COPY_DATA_FILE: opening file data.kpp
(PID.TID 0000.0001) // =======================================================
(PID.TID 0000.0001) // Parameter file "data.kpp"
(PID.TID 0000.0001) // =======================================================
(PID.TID 0000.0001) ># KPP parameters
(PID.TID 0000.0001) > &KPP_PARM01
(PID.TID 0000.0001) >### KPPmixingMaps   = .FALSE.,
(PID.TID 0000.0001) >### KPPwriteState   = .FALSE.,
(PID.TID 0000.0001) >### kpp_dumpFreq    = 0.,
(PID.TID 0000.0001) >### kpp_tavefreq    = 0.,
(PID.TID 0000.0001) >### Ricr            = 0.3559,
(PID.TID 0000.0001) >### Riinfty         = 0.6998,
(PID.TID 0000.0001) > &
(PID.TID 0000.0001) 
(PID.TID 0000.0001)  KPP_READPARMS ; starts to read KPP_PARM01
(PID.TID 0000.0001)  KPP_READPARMS ; read KPP_PARM01 : OK
(PID.TID 0000.0001)  KPP_READPARMS: finished reading data.kpp
(PID.TID 0000.0001)  DIAGNOSTICS_READPARMS: opening data.diagnostics
(PID.TID 0000.0001)  OPEN_COPY_DATA_FILE: opening file data.diagnostics
(PID.TID 0000.0001) // =======================================================
(PID.TID 0000.0001) // Parameter file "data.diagnostics"
(PID.TID 0000.0001) // =======================================================
(PID.TID 0000.0001) ># Diagnostic Package Choices
(PID.TID 0000.0001) >#-----------------
(PID.TID 0000.0001) ># for each output-stream:
(PID.TID 0000.0001) >#  filename(n) : prefix of the output file name (only 8.c long) for outp.stream n
(PID.TID 0000.0001) >#  frequency(n):< 0 : write snap-shot output every multiple of |frequency| (iter)
(PID.TID 0000.0001) >#               > 0 : write time-average output every multiple of frequency (iter)
(PID.TID 0000.0001) >#  levels(:,n) : list of levels to write to file (Notes: declared as REAL)
(PID.TID 0000.0001) >#                 when this entry is missing, select all common levels of this list
(PID.TID 0000.0001) >#  fields(:,n) : list of diagnostics fields (8.c) (see "available_diagnostics" file
(PID.TID 0000.0001) >#                 for the list of all available diag. in this particular config)
(PID.TID 0000.0001) >#--------------------------------------------------------------------
(PID.TID 0000.0001) >#
(PID.TID 0000.0001) > &diagnostics_list
(PID.TID 0000.0001) >#
(PID.TID 0000.0001) >   dumpatlast = .TRUE.,
(PID.TID 0000.0001) >#
(PID.TID 0000.0001) >#---
(PID.TID 0000.0001) >  frequency(1) = 3600.0,
(PID.TID 0000.0001) >   fields(1:5,1) = 'ETAN', 'oceTAUX', 'oceTAUY', 'EXFuwind', 'EXFvwind',
(PID.TID 0000.0001) >   filename(1) = 'diags/surface',
(PID.TID 0000.0001) >#---
(PID.TID 0000.0001) >  frequency(2) = 2592000.0,
(PID.TID 0000.0001) >   fields(1:9,2)='THETA','SALT','UVEL','VVEL','WVEL','UVELSQ','VVELSQ','WTHMASS','WSLTMASS',
(PID.TID 0000.0001) >   filename(2) = 'diags/interior',
(PID.TID 0000.0001) >#   levels(1:55,2) =  1., 2., 3., 4., 5., 6., 7., 8., 9.,10.,11.,13.,15.,
(PID.TID 0000.0001) >#                     17.,19.,21.,23.,25.,27.,29.,31.,33.,35.,37.,39.,41.,43.,45.,
(PID.TID 0000.0001) >#                     47.,49.,51.,53.,55.,57.,59.,61.,63.,65.,67.,69.,71.,73.,75.,
(PID.TID 0000.0001) >#                     77.,79.,81.,83.,85.,87.,89.,91.,93.,95.,97.,99.,
(PID.TID 0000.0001) > /
(PID.TID 0000.0001) >#
(PID.TID 0000.0001) >#
(PID.TID 0000.0001) ># Parameter for Diagnostics of per level statistics:
(PID.TID 0000.0001) >#-----------------
(PID.TID 0000.0001) ># for each output-stream:
(PID.TID 0000.0001) >#  stat_fname(n) : prefix of the output file name (only 8.c long) for outp.stream n
(PID.TID 0000.0001) >#  stat_freq(n):< 0 : write snap-shot output every |stat_freq| seconds
(PID.TID 0000.0001) >#               > 0 : write time-average output every stat_freq seconds
(PID.TID 0000.0001) >#  stat_phase(n)    : write at time = stat_phase + multiple of |stat_freq|
(PID.TID 0000.0001) >#  stat_region(:,n) : list of "regions" (default: 1 region only=global)
(PID.TID 0000.0001) >#  stat_fields(:,n) : list of diagnostics fields (8.c) (see "available_diagnostics.log"
(PID.TID 0000.0001) >#                 file for the list of all available diag. in this particular config)
(PID.TID 0000.0001) >#-----------------
(PID.TID 0000.0001) > &DIAG_STATIS_PARMS
(PID.TID 0000.0001) ># diagSt_regMaskFile='basin_masks_eccollc_90x50.bin',
(PID.TID 0000.0001) ># nSetRegMskFile=1,
(PID.TID 0000.0001) ># set_regMask(1)= 1,  1,  1,  1,  1,  1,  1,  1,  1,
(PID.TID 0000.0001) >#                 1,  1,  1,  1,  1,  1,  1,  1
(PID.TID 0000.0001) ># val_regMask(1)= 1., 2., 3., 4., 5., 6., 7., 8., 9.,
(PID.TID 0000.0001) >#                10.,11.,12.,13.,14.,15.,16.,17.
(PID.TID 0000.0001) >##---
(PID.TID 0000.0001) ># stat_fields(1,1)= 'ETAN    ','ETANSQ  ','DETADT2 ',
(PID.TID 0000.0001) >#                   'UVEL    ','VVEL    ','WVEL    ',
(PID.TID 0000.0001) >#                   'THETA   ','SALT    ',
(PID.TID 0000.0001) >#    stat_fname(1)= 'dynStDiag',
(PID.TID 0000.0001) >#     stat_freq(1)= 3153600.,
(PID.TID 0000.0001) ># stat_region(1,1)=  1, 2, 3, 4, 5, 6, 7, 8, 9,
(PID.TID 0000.0001) >#                   10,11,12,13,14,15,16,17
(PID.TID 0000.0001) >##---
(PID.TID 0000.0001) ># stat_fields(1,2)= 'oceTAUX ','oceTAUY ',
(PID.TID 0000.0001) >#                   'surForcT','surForcS','TFLUX   ','SFLUX   ',
(PID.TID 0000.0001) >#                   'oceQnet ','oceSflux','oceFWflx',
(PID.TID 0000.0001) >#    stat_fname(2)= 'surfStDiag',
(PID.TID 0000.0001) >#     stat_freq(2)= 3153600.,
(PID.TID 0000.0001) ># stat_region(1,2)=  1, 2, 3, 4, 5, 6, 7, 8, 9,
(PID.TID 0000.0001) >#                   10,11,12,13,14,15,16,17
(PID.TID 0000.0001) > /
(PID.TID 0000.0001) 
(PID.TID 0000.0001) S/R DIAGNOSTICS_READPARMS, read namelist "diagnostics_list": start
(PID.TID 0000.0001) S/R DIAGNOSTICS_READPARMS, read namelist "diagnostics_list": OK
(PID.TID 0000.0001) S/R DIAGNOSTICS_READPARMS, read namelist "DIAG_STATIS_PARMS": start
(PID.TID 0000.0001) S/R DIAGNOSTICS_READPARMS, read namelist "DIAG_STATIS_PARMS": OK
(PID.TID 0000.0001)  DIAGNOSTICS_READPARMS: global parameter summary:
(PID.TID 0000.0001)  dumpAtLast = /* always write time-ave diags at the end */
(PID.TID 0000.0001)                   T
(PID.TID 0000.0001)     ;
(PID.TID 0000.0001)  diag_mnc =   /* write NetCDF output files */
(PID.TID 0000.0001)                   F
(PID.TID 0000.0001)     ;
(PID.TID 0000.0001)  useMissingValue = /* put MissingValue where mask = 0 */
(PID.TID 0000.0001)                   F
(PID.TID 0000.0001)     ;
(PID.TID 0000.0001)  diagCG_maxIters = /* max number of iters in diag_cg2d */
(PID.TID 0000.0001)                    1000
(PID.TID 0000.0001)     ;
(PID.TID 0000.0001)  diagCG_resTarget = /* residual target for diag_cg2d */
(PID.TID 0000.0001)                 1.000000000000000E-07
(PID.TID 0000.0001)     ;
(PID.TID 0000.0001)  diagCG_pcOffDFac = /* preconditioner off-diagonal factor */
(PID.TID 0000.0001)                 9.611687812379854E-01
(PID.TID 0000.0001)     ;
(PID.TID 0000.0001) -----------------------------------------------------
(PID.TID 0000.0001)  DIAGNOSTICS_READPARMS: active diagnostics summary:
(PID.TID 0000.0001) -----------------------------------------------------
(PID.TID 0000.0001) Creating Output Stream: diags/surface
(PID.TID 0000.0001) Output Frequency:       3600.000000 ; Phase:           0.000000
(PID.TID 0000.0001)  Averaging Freq.:       3600.000000 , Phase:           0.000000 , Cycle:   1
(PID.TID 0000.0001)  missing value: -9.990000000000E+02
(PID.TID 0000.0001)  Levels:    will be set later
(PID.TID 0000.0001)  Fields:    ETAN     oceTAUX  oceTAUY  EXFuwind EXFvwind
(PID.TID 0000.0001) Creating Output Stream: diags/interior
(PID.TID 0000.0001) Output Frequency:    2592000.000000 ; Phase:           0.000000
(PID.TID 0000.0001)  Averaging Freq.:    2592000.000000 , Phase:           0.000000 , Cycle:   1
(PID.TID 0000.0001)  missing value: -9.990000000000E+02
(PID.TID 0000.0001)  Levels:    will be set later
(PID.TID 0000.0001)  Fields:    THETA    SALT     UVEL     VVEL     WVEL     UVELSQ   VVELSQ   WTHMASS  WSLTMASS
(PID.TID 0000.0001) -----------------------------------------------------
(PID.TID 0000.0001)  DIAGNOSTICS_READPARMS: statistics diags. summary:
(PID.TID 0000.0001) -----------------------------------------------------
(PID.TID 0000.0001) 
(PID.TID 0000.0001) SET_PARMS: done
(PID.TID 0000.0001)  MDS_READVEC_LOC: open file: delYFile
(PID.TID 0000.0001) S/R LOAD_GRID_SPACING: delY loaded from file: delYFile
(PID.TID 0000.0001) Enter INI_VERTICAL_GRID: setInterFDr=    T ; setCenterDr=    F
(PID.TID 0000.0001) %MON XC_max                       =   6.9791666666678E+00
(PID.TID 0000.0001) %MON XC_min                       =  -8.2979166666667E+01
(PID.TID 0000.0001) %MON XC_mean                      =  -3.8000000000000E+01
(PID.TID 0000.0001) %MON XC_sd                        =   2.5980759329244E+01
(PID.TID 0000.0001) %MON XG_max                       =   6.9583333333345E+00
(PID.TID 0000.0001) %MON XG_min                       =  -8.3000000000000E+01
(PID.TID 0000.0001) %MON XG_mean                      =  -3.8020833333333E+01
(PID.TID 0000.0001) %MON XG_sd                        =   2.5980759329244E+01
(PID.TID 0000.0001) %MON DXC_max                      =   4.1396408443605E+03
(PID.TID 0000.0001) %MON DXC_min                      =   3.3595207907282E+03
(PID.TID 0000.0001) %MON DXC_mean                     =   3.7639154747743E+03
(PID.TID 0000.0001) %MON DXC_sd                       =   2.2707285978599E+02
(PID.TID 0000.0001) %MON DXF_max                      =   4.1396408443605E+03
(PID.TID 0000.0001) %MON DXF_min                      =   3.3595207907282E+03
(PID.TID 0000.0001) %MON DXF_mean                     =   3.7639154747743E+03
(PID.TID 0000.0001) %MON DXF_sd                       =   2.2707285978599E+02
(PID.TID 0000.0001) %MON DXG_max                      =   4.1402617210449E+03
(PID.TID 0000.0001) %MON DXG_min                      =   3.3603032053391E+03
(PID.TID 0000.0001) %MON DXG_mean                     =   3.7646389662878E+03
(PID.TID 0000.0001) %MON DXG_sd                       =   2.2702689694182E+02
(PID.TID 0000.0001) %MON DXV_max                      =   4.1402617210449E+03
(PID.TID 0000.0001) %MON DXV_min                      =   3.3603032053391E+03
(PID.TID 0000.0001) %MON DXV_mean                     =   3.7646389662878E+03
(PID.TID 0000.0001) %MON DXV_sd                       =   2.2702689694182E+02
(PID.TID 0000.0001) %MON YC_max                       =   4.3512569427490E+01
(PID.TID 0000.0001) %MON YC_min                       =   2.6667170524597E+01
(PID.TID 0000.0001) %MON YC_mean                      =   3.5365724839105E+01
(PID.TID 0000.0001) %MON YC_sd                        =   4.8759077938983E+00
(PID.TID 0000.0001) %MON YG_max                       =   4.3498512268066E+01
(PID.TID 0000.0001) %MON YG_min                       =   2.6650054931641E+01
(PID.TID 0000.0001) %MON YG_mean                      =   3.5350098383868E+01
(PID.TID 0000.0001) %MON YG_sd                        =   4.8767967628688E+00
(PID.TID 0000.0001) %MON DYC_max                      =   3.8052066241563E+03
(PID.TID 0000.0001) %MON DYC_min                      =   3.1263150971014E+03
(PID.TID 0000.0001) %MON DYC_mean                     =   3.4746196212554E+03
(PID.TID 0000.0001) %MON DYC_sd                       =   1.9733005957431E+02
(PID.TID 0000.0001) %MON DYF_max                      =   3.8057367596608E+03
(PID.TID 0000.0001) %MON DYF_min                      =   3.1256789344960E+03
(PID.TID 0000.0001) %MON DYF_mean                     =   3.4746196212554E+03
(PID.TID 0000.0001) %MON DYF_sd                       =   1.9787288708661E+02
(PID.TID 0000.0001) %MON DYG_max                      =   3.8057367596608E+03
(PID.TID 0000.0001) %MON DYG_min                      =   3.1256789344960E+03
(PID.TID 0000.0001) %MON DYG_mean                     =   3.4746196212554E+03
(PID.TID 0000.0001) %MON DYG_sd                       =   1.9787288708661E+02
(PID.TID 0000.0001) %MON DYU_max                      =   3.8052066241563E+03
(PID.TID 0000.0001) %MON DYU_min                      =   3.1263150971014E+03
(PID.TID 0000.0001) %MON DYU_mean                     =   3.4746196212554E+03
(PID.TID 0000.0001) %MON DYU_sd                       =   1.9733005957431E+02
(PID.TID 0000.0001) %MON RA_max                       =   1.5754383098869E+07
(PID.TID 0000.0001) %MON RA_min                       =   1.0500783260236E+07
(PID.TID 0000.0001) %MON RA_mean                      =   1.3123104411967E+07
(PID.TID 0000.0001) %MON RA_sd                        =   1.5313828268276E+06
(PID.TID 0000.0001) %MON RAW_max                      =   1.5754383098869E+07
(PID.TID 0000.0001) %MON RAW_min                      =   1.0500783260236E+07
(PID.TID 0000.0001) %MON RAW_mean                     =   1.3123104411967E+07
(PID.TID 0000.0001) %MON RAW_sd                       =   1.5313828268276E+06
(PID.TID 0000.0001) %MON RAS_max                      =   1.5749824888079E+07
(PID.TID 0000.0001) %MON RAS_min                      =   1.0505367034035E+07
(PID.TID 0000.0001) %MON RAS_mean                     =   1.3125365861136E+07
(PID.TID 0000.0001) %MON RAS_sd                       =   1.5281062334216E+06
(PID.TID 0000.0001) %MON RAZ_max                      =   1.5749824888079E+07
(PID.TID 0000.0001) %MON RAZ_min                      =   1.0505367034035E+07
(PID.TID 0000.0001) %MON RAZ_mean                     =   1.3125365861136E+07
(PID.TID 0000.0001) %MON RAZ_sd                       =   1.5281062334216E+06
(PID.TID 0000.0001) %MON AngleCS_max                  =   1.0000000000000E+00
(PID.TID 0000.0001) %MON AngleCS_min                  =   1.0000000000000E+00
(PID.TID 0000.0001) %MON AngleCS_mean                 =   1.0000000000000E+00
(PID.TID 0000.0001) %MON AngleCS_sd                   =   0.0000000000000E+00
(PID.TID 0000.0001) %MON AngleSN_max                  =   0.0000000000000E+00
(PID.TID 0000.0001) %MON AngleSN_min                  =   0.0000000000000E+00
(PID.TID 0000.0001) %MON AngleSN_mean                 =   0.0000000000000E+00
(PID.TID 0000.0001) %MON AngleSN_sd                   =   0.0000000000000E+00
(PID.TID 0000.0001)  MDS_READ_FIELD: opening global file: bathy.bin
(PID.TID 0000.0001) // =======================================================
(PID.TID 0000.0001) // Field Model R_low (ini_masks_etc)
(PID.TID 0000.0001) // CMIN =         -8.535130615234375E+02
(PID.TID 0000.0001) // CMAX =         -5.000000000000000E+00
(PID.TID 0000.0001) // CINT =          3.142640968605324E+01
(PID.TID 0000.0001) // SYMBOLS (CMIN->CMAX): -abcdefghijklmnopqrstuvwxyz+
(PID.TID 0000.0001) //                  0.0: .
(PID.TID 0000.0001) // RANGE I (Lo:Hi:Step):(    -3:    94:     1)
(PID.TID 0000.0001) // RANGE J (Lo:Hi:Step):(    94:    -3:    -1)
(PID.TID 0000.0001) // RANGE K (Lo:Hi:Step):(   1:   1:   1)
(PID.TID 0000.0001) // =======================================================
(PID.TID 0000.0001) K =   1
(PID.TID 0000.0001) //                I=6       I=16      I=26      I=36      I=46      I=56      I=66      I=76      I=86
(PID.TID 0000.0001) // |--J--|321012345|789012345|789012345|789012345|789012345|789012345|789012345|789012345|789012345|78901234
(PID.TID 0000.0001) //     94 ..............................................+++++++zzzzzzzzzzzzzzzzyvrpnlkjhfecbbbbbbbbbbbbbbbbb
(PID.TID 0000.0001) //     93 ..............................................++++++++zzzzzzzzzzzzzzzyvronlkjhfecbbbbbbbbbbbbbbbbb
(PID.TID 0000.0001) //     92 ..............................................+++++++zzzzzzzzzzzzzzzzywronlkjhfedcbbbbbbbbbbbbbbbb
(PID.TID 0000.0001) //     91 ..............................................+++++++zzzzzzzzzzzzzzzzywrpnlkjhfeedbbbbbbbbbbbbbbbb
(PID.TID 0000.0001) //     90 ...............................................+++++++zzzzzzzzzzzzzzzywspnlkihfeedcbbbbbbbbbbbbbbb
(PID.TID 0000.0001) //     89 ...............................................++++++++zzzzzzzzzzzzzzyxspnlkigeeedcbbbbbbbbbbbbbbb
(PID.TID 0000.0001) //     88 ...............................................+++++++++zzzzzzzzzzzzzyxtpnmkjgeeedcbbbbbbbbbbbbbbb
(PID.TID 0000.0001) //     87 ................................................+++++++zzzzzzzzzzzzzzyxupnmkjheeedcbbbbbbbbbbbbbbb
(PID.TID 0000.0001) //     86 ................................................++++++++++++zzzzzzzzzyxvpnmljheeedcbbbbbbbbbbbbbbb
(PID.TID 0000.0001) //     85 .................................................+++z++z++++zzzzzzzzzyxwqnmljheeeddbbbbbbbbbbbbbbb
(PID.TID 0000.0001) //     84 .................................................+++++zzzzzzzzzzzzzzzyywrnmljhfeeddcbbbbbbbbbbbbbb
(PID.TID 0000.0001) //     83 .................................................++++++zzzzzzzzzzzzzzyywtnmljifeeedcbbbbbbbbbbbbbb
(PID.TID 0000.0001) //     82 ..................................................++++++zzzzzzzzzzzzzyyxuomljigeeedcbbbbbbbbbbbbbb
(PID.TID 0000.0001) //     81 ..................................................+++++++zzzzzzzzzzzzyyxvpmkkigeeddccbbbbbbbbbbbbb
(PID.TID 0000.0001) //     80 ..................................................+++++++zzzzzzzzzzzzyyxvrnlkjgeeddccbbbbbbbbbbbbb
(PID.TID 0000.0001) //     79 ...................................................+++++zzzzzzzzzzzzzyyxwtpnmkheeddccbbbbbbbbbbbbb
(PID.TID 0000.0001) //     78 ...................................................++++++zzzzzzzzzzzzzyywurpnlhfeddccbbbbbbbbbbbbb
(PID.TID 0000.0001) //     77 ....................................................++++zzzzzzzzzzzzzzyywvspnkifeddccbbbbbbbbbbbbb
(PID.TID 0000.0001) //     76 ....................................................+++++zzzzzzzzzzzzzyyxvsomkifeddccbbbbbbbbbbbbb
(PID.TID 0000.0001) //     75 ....................................................++++++zzzzzzzzzzzzyyxvsomkifeddcccbbbbbbbbbbbb
(PID.TID 0000.0001) //     74 .....................................................++++++zzzzzzzzzzzyyxwtpmkifeddcccbbbbbbbbbbbb
(PID.TID 0000.0001) //     73 .....................................................++++++zzzzzzzzzzzyyywuqnligedddccbbbbbbbbbbbb
(PID.TID 0000.0001) //     72 ......................................................+++++++zzzzzzzzzzyywuroljhfeddccbbbbbbbbbbbb
(PID.TID 0000.0001) //     71 ......................................................+++++++++zzzzzzzzyyxvspmkhfeddccbbbbbbbbbbbb
(PID.TID 0000.0001) //     70 .......................................................++++++++z+zzzzzzyyxvtqnligeddcccbbbbbbbbbbb
(PID.TID 0000.0001) //     69 .......................................................+++++++++zzzzzzzyyxvtromjgeddccbbbbbbbbbbbb
(PID.TID 0000.0001) //     68 ........................................................+++++++++zzzzzzyyxwurpnkhfdcccbbbbbbbbbbbb
(PID.TID 0000.0001) //     67 .........................................................+++++z++zzzzzzyyxwusqolifdbcbbbbbbbbbabbb
(PID.TID 0000.0001) //     66 .........................................................+++++z++zzzzzzzyywusqomjgecbbbbbbbbbaaaab
(PID.TID 0000.0001) //     65 .........................................................++++++++zzzzzzzyywvtrpnkhecbbbaabbaaaaaaa
(PID.TID 0000.0001) //     64 ..........................................................++++++++zzzzzzyyxvtrpnlhfccbbbabbaaaaaaa
(PID.TID 0000.0001) //     63 ..........................................................++++++++zzzzzzyyxvtrpnlifccbbbabaaaaaaaa
(PID.TID 0000.0001) //     62 ...........................................................+++++++zzzzzzyyxvurpoljgccbbbbaaaaaaaaa
(PID.TID 0000.0001) //     61 ............................................................+++++++zzzzzyyxwusqomkgdcbbbaaaaaaaaaa
(PID.TID 0000.0001) //     60 .............................................................++++++zzzzzyyxwusqomkhdcbbbaaaaaaaaaa
(PID.TID 0000.0001) //     59 .............................................................++++++zzzzzyyywusqonliecbbbaaaaaaaaaa
(PID.TID 0000.0001) //     58 ..............................................................++++++zzzzyyyxvtrpnljfcbbbaaaaaaa-aa
(PID.TID 0000.0001) //     57 ..............................................................++++++zzzzzyyxvtrpnljgcbbbaaaaaaa-aa
(PID.TID 0000.0001) //     56 ..............................................................++++++zzzzzyyxvtrpnljgdbbbbaaaaaa-a-
(PID.TID 0000.0001) //     55 ...............................................................++++zzzzzzyyxvusqnljgdbbbbbaaaaa---
(PID.TID 0000.0001) //     54 ...............................................................++++zzzzzzyyxwusqomkhdbbbbbaaaaaa--
(PID.TID 0000.0001) //     53 ...............................................................+++++zzzzzyyywusqomkhdbbbbbbaaaaa--
(PID.TID 0000.0001) //     52 ............................................................++++++++zzzzzyyywusqomkidbbbbbbbaaaa--
(PID.TID 0000.0001) //     51 ............................................................++++++++zzzzzyyywutqpnliebabbbbbbaaa--
(PID.TID 0000.0001) //     50 .............................................................+++++++zzzzzzyywvtrpnlifcabbbbbbaaaa-
(PID.TID 0000.0001) //     49 .............................................................++++++++zzzzzyyxvtrpnljfcabbccbbaaa--
(PID.TID 0000.0001) //     48 ............................................................+++++++++zzzzzyyxvtrpnljfcbbbcccbbaa--
(PID.TID 0000.0001) //     47 ............................................................+++++++++zzzzzyyxvtrpnmjfcbbcccccbaaa-
(PID.TID 0000.0001) //     46 ............................................................+++++++++zzzzzyyxvusqnmjgcbbccdcccbaaa
(PID.TID 0000.0001) //     45 .............................................................++++++zzzzzzzzyxvusqnljfcbbccddccbbaa
(PID.TID 0000.0001) //     44 ..............................................................+++++zzzzzzzzyxwusqnmjgcbbcddddccbaa
(PID.TID 0000.0001) //     43 ..............................................................++++z+zzzzzzzyxwusqnmkgcbbcdedddcbba
(PID.TID 0000.0001) //     42 ..............................................................++++z+zzzzzzzyxwusqomkgcbbcdeeeddcbb
(PID.TID 0000.0001) //     41 ...............................................................+++++zzzzzzzyxwusqomjgcbbcdeeeeddcb
(PID.TID 0000.0001) //     40 ...............................................................++++++zzzzzzyxwusqomkgdbbcdeeeeeddb
(PID.TID 0000.0001) //     39 ................................................................++++++zzzzzyxwusqomkhdbbcdeeffeedc
(PID.TID 0000.0001) //     38 ................................................................+++++++zzzzyxwutqomkhdbbcdefffffed
(PID.TID 0000.0001) //     37 .................................................................++++++zzzzyywutqomkhdbbceefgggffe
(PID.TID 0000.0001) //     36 .................................................................++++++zzzzyxwusqomkhdcbceffghggff
(PID.TID 0000.0001) //     35 .................................................................+++++++zzzyywusqomkhdccdefghhhhgg
(PID.TID 0000.0001) //     34 ..................................................................++++++zzzyywusqomkhddcdefghhihhh
(PID.TID 0000.0001) //     33 ..................................................................++++++zzzzywusqomkhddddefghiiiih
(PID.TID 0000.0001) //     32 ...................................................................+++++zzzyywusqomkheddeefgiijjji
(PID.TID 0000.0001) //     31 ...................................................................++++++zzyywusqomkieddeefhijkkkj
(PID.TID 0000.0001) //     30 ...................................................................+++++zzzzywusqomkieddeefhijkllk
(PID.TID 0000.0001) //     29 ....................................................................+++++zzzywusqomkieddeefhiklmmm
(PID.TID 0000.0001) //     28 ....................................................................+++++zzzywusqomkheddeefhjkmnon
(PID.TID 0000.0001) //     27 ....................................................................+++++zzzywusqomkheddeeghjlmopp
(PID.TID 0000.0001) //     26 .....................................................................++++zzzywusqomkheddeeghjkmoqq
(PID.TID 0000.0001) //     25 ....................................................................+++++zzzxwusqomkhdcddefhiknprr
(PID.TID 0000.0001) //     24 ....................................................................++++++zzywusqomkhdcddeghiknqss
(PID.TID 0000.0001) //     23 .....................................................................+++++zzywusqomkhcddefghiknqux
(PID.TID 0000.0001) //     22 .....................................................................+++++zzywusqomjhdcddefhilnrzz
(PID.TID 0000.0001) //     21 ......................................................................++++zzywusqomjhdddeefhiknrzz
(PID.TID 0000.0001) //     20 ......................................................................++++zzywusqomjgdddefghilnszz
(PID.TID 0000.0001) //     19 .......................................................................+++zzywusqomjgddddefgiknsyz
(PID.TID 0000.0001) //     18 .......................................................................+++zzywurqomkgddddefgijntyz
(PID.TID 0000.0001) //     17 ........................................................................++zzywtrpomkhddddefghjmtxy
(PID.TID 0000.0001) //     16 ........................................................................+++zywurpomkhdcddefghjmuwy
(PID.TID 0000.0001) //     15 .........................................................................++zxwtrpomkhdcccdfghjnvwx
(PID.TID 0000.0001) //     14 .........................................................................++zxwurpnmkhecccdfghjmuwx
(PID.TID 0000.0001) //     13 .........................................................................++zxwtrpnmkhecccdfghiltwx
(PID.TID 0000.0001) //     12 ..........................................................................+zxwurpnlkiecccdfggikqxx
(PID.TID 0000.0001) //     11 ..........................................................................++yvtrpnljhfdccdefghjmvw
(PID.TID 0000.0001) //     10 ..........................................................................++yvtrpnljhecccdefghjlru
(PID.TID 0000.0001) //      9 ..........................................................................++yvtrpnljhedccdeffgikos
(PID.TID 0000.0001) //      8 ..........................................................................++yvtrpnligedccdfffgiknr
(PID.TID 0000.0001) //      7 ..................................................................................................
(PID.TID 0000.0001) //      6 ..................................................................................................
(PID.TID 0000.0001) //      5 ..................................................................................................
(PID.TID 0000.0001) //      4 ..................................................................................................
(PID.TID 0000.0001) //      3 ..................................................................................................
(PID.TID 0000.0001) //      2 ..................................................................................................
(PID.TID 0000.0001) //      1 ..................................................................................................
(PID.TID 0000.0001) //      0 ..................................................................................................
(PID.TID 0000.0001) //     -1 ..................................................................................................
(PID.TID 0000.0001) //     -2 ..................................................................................................
(PID.TID 0000.0001) //     -3 ..................................................................................................
(PID.TID 0000.0001) // =======================================================
(PID.TID 0000.0001) // END OF FIELD                                          =
(PID.TID 0000.0001) // =======================================================
(PID.TID 0000.0001) 
(PID.TID 0000.0001) // =======================================================
(PID.TID 0000.0001) // Field Model Ro_surf (ini_masks_etc)
(PID.TID 0000.0001) // CMIN =          1.000000000000000E+32
(PID.TID 0000.0001) // CMAX =         -1.000000000000000E+32
(PID.TID 0000.0001) // CINT =          0.000000000000000E+00
(PID.TID 0000.0001) // SYMBOLS (CMIN->CMAX): -abcdefghijklmnopqrstuvwxyz+
(PID.TID 0000.0001) //                  0.0: .
(PID.TID 0000.0001) // RANGE I (Lo:Hi:Step):(    -3:    94:     1)
(PID.TID 0000.0001) // RANGE J (Lo:Hi:Step):(    94:    -3:    -1)
(PID.TID 0000.0001) // RANGE K (Lo:Hi:Step):(   1:   1:   1)
(PID.TID 0000.0001) // =======================================================
(PID.TID 0000.0001) // =======================================================
(PID.TID 0000.0001) // END OF FIELD                                          =
(PID.TID 0000.0001) // =======================================================
(PID.TID 0000.0001) 
(PID.TID 0000.0001) // =======================================================
(PID.TID 0000.0001) // Field hFacC at iteration          0
(PID.TID 0000.0001) // CMIN =          1.000000000000000E+00
(PID.TID 0000.0001) // CMAX =          1.000000000000000E+00
(PID.TID 0000.0001) // CINT =          0.000000000000000E+00
(PID.TID 0000.0001) // SYMBOLS (CMIN->CMAX): -abcdefghijklmnopqrstuvwxyz+
(PID.TID 0000.0001) //                  0.0: .
(PID.TID 0000.0001) // RANGE I (Lo:Hi:Step):(    -3:    94:     1)
(PID.TID 0000.0001) // RANGE J (Lo:Hi:Step):(    94:    -3:    -1)
(PID.TID 0000.0001) // RANGE K (Lo:Hi:Step):(   1:   1:   1)
(PID.TID 0000.0001) // =======================================================
(PID.TID 0000.0001) // =======================================================
(PID.TID 0000.0001) // END OF FIELD                                          =
(PID.TID 0000.0001) // =======================================================
(PID.TID 0000.0001) 
(PID.TID 0000.0001) // =======================================================
(PID.TID 0000.0001) // Field hFacW at iteration          0
(PID.TID 0000.0001) // CMIN =          1.000000000000000E+00
(PID.TID 0000.0001) // CMAX =          1.000000000000000E+00
(PID.TID 0000.0001) // CINT =          0.000000000000000E+00
(PID.TID 0000.0001) // SYMBOLS (CMIN->CMAX): -abcdefghijklmnopqrstuvwxyz+
(PID.TID 0000.0001) //                  0.0: .
(PID.TID 0000.0001) // RANGE I (Lo:Hi:Step):(    -3:    94:     1)
(PID.TID 0000.0001) // RANGE J (Lo:Hi:Step):(    94:    -3:    -1)
(PID.TID 0000.0001) // RANGE K (Lo:Hi:Step):(   1:   1:   1)
(PID.TID 0000.0001) // =======================================================
(PID.TID 0000.0001) // =======================================================
(PID.TID 0000.0001) // END OF FIELD                                          =
(PID.TID 0000.0001) // =======================================================
(PID.TID 0000.0001) 
(PID.TID 0000.0001) // =======================================================
(PID.TID 0000.0001) // Field hFacS at iteration          0
(PID.TID 0000.0001) // CMIN =          1.000000000000000E+00
(PID.TID 0000.0001) // CMAX =          1.000000000000000E+00
(PID.TID 0000.0001) // CINT =          0.000000000000000E+00
(PID.TID 0000.0001) // SYMBOLS (CMIN->CMAX): -abcdefghijklmnopqrstuvwxyz+
(PID.TID 0000.0001) //                  0.0: .
(PID.TID 0000.0001) // RANGE I (Lo:Hi:Step):(    -3:    94:     1)
(PID.TID 0000.0001) // RANGE J (Lo:Hi:Step):(    94:    -3:    -1)
(PID.TID 0000.0001) // RANGE K (Lo:Hi:Step):(   1:   1:   1)
(PID.TID 0000.0001) // =======================================================
(PID.TID 0000.0001) // =======================================================
(PID.TID 0000.0001) // END OF FIELD                                          =
(PID.TID 0000.0001) // =======================================================
(PID.TID 0000.0001) 
(PID.TID 0000.0001) 
(PID.TID 0000.0001) // =======================================================
(PID.TID 0000.0001) // Calendar configuration >>> START <<<
(PID.TID 0000.0001) // =======================================================
(PID.TID 0000.0001) 
(PID.TID 0000.0001) modelstart = /* Start time of the model integration [s] */
(PID.TID 0000.0001)                 0.000000000000000E+00
(PID.TID 0000.0001)     ;
(PID.TID 0000.0001) modelend  = /* End time of the model integration [s] */
(PID.TID 0000.0001)                 3.600000000000000E+03
(PID.TID 0000.0001)     ;
(PID.TID 0000.0001) modelStep = /* Time interval for a model forward step [s] */
(PID.TID 0000.0001)                 2.400000000000000E+02
(PID.TID 0000.0001)     ;
(PID.TID 0000.0001) usingGregorianCalendar= /* Calendar Type: Gregorian Calendar */
(PID.TID 0000.0001)                   T
(PID.TID 0000.0001)     ;
(PID.TID 0000.0001) usingJulianCalendar = /* Calendar Type: Julian Calendar */
(PID.TID 0000.0001)                   F
(PID.TID 0000.0001)     ;
(PID.TID 0000.0001) usingNoLeapYearCal  = /* Calendar Type: without Leap Year */
(PID.TID 0000.0001)                   F
(PID.TID 0000.0001)     ;
(PID.TID 0000.0001) usingModelCalendar  = /* Calendar Type: Model Calendar */
(PID.TID 0000.0001)                   F
(PID.TID 0000.0001)     ;
(PID.TID 0000.0001) modelStartDate YYYYMMDD = /* Model start date YYYY-MM-DD */
(PID.TID 0000.0001)                20080101
(PID.TID 0000.0001)     ;
(PID.TID 0000.0001)   modelStartDate HHMMSS = /* Model start date HH-MM-SS  */
(PID.TID 0000.0001)                       0
(PID.TID 0000.0001)     ;
(PID.TID 0000.0001) modelEndDate   YYYYMMDD = /* Model end date YYYY-MM-DD */
(PID.TID 0000.0001)                20080101
(PID.TID 0000.0001)     ;
(PID.TID 0000.0001)   modelEndDate   HHMMSS = /* Model end date HH-MM-SS  */
(PID.TID 0000.0001)                   10000
(PID.TID 0000.0001)     ;
(PID.TID 0000.0001) intyears = /* Number of calendar years affected by the integration */
(PID.TID 0000.0001)                       1
(PID.TID 0000.0001)     ;
(PID.TID 0000.0001) intmonths= /* Number of calendar months affected by the integration */
(PID.TID 0000.0001)                       1
(PID.TID 0000.0001)     ;
(PID.TID 0000.0001) intdays = /* Number of calendar days affected by the integration */
(PID.TID 0000.0001)                       1
(PID.TID 0000.0001)     ;
(PID.TID 0000.0001) modelIter0 = /* Base timestep number  */
(PID.TID 0000.0001)                       0
(PID.TID 0000.0001)     ;
(PID.TID 0000.0001) modelIterEnd = /* Final timestep number  */
(PID.TID 0000.0001)                      15
(PID.TID 0000.0001)     ;
(PID.TID 0000.0001) modelIntSteps= /* Number of model timesteps  */
(PID.TID 0000.0001)                      15
(PID.TID 0000.0001)     ;
(PID.TID 0000.0001) 
(PID.TID 0000.0001) // =======================================================
(PID.TID 0000.0001) // Calendar configuration  >>> END <<<
(PID.TID 0000.0001) // =======================================================
(PID.TID 0000.0001) 
(PID.TID 0000.0001) GAD_INIT_FIXED: GAD_OlMinSize=  4  0  1
(PID.TID 0000.0001) 
(PID.TID 0000.0001) // ===================================
(PID.TID 0000.0001) // GAD parameters :
(PID.TID 0000.0001) // ===================================
(PID.TID 0000.0001) tempAdvScheme =   /* Temp. Horiz.Advection scheme selector */
(PID.TID 0000.0001)                       7
(PID.TID 0000.0001)     ;
(PID.TID 0000.0001) tempVertAdvScheme =   /* Temp. Vert. Advection scheme selector */
(PID.TID 0000.0001)                       7
(PID.TID 0000.0001)     ;
(PID.TID 0000.0001) tempMultiDimAdvec =   /* use Muti-Dim Advec method for Temp */
(PID.TID 0000.0001)                   T
(PID.TID 0000.0001)     ;
(PID.TID 0000.0001) tempSOM_Advection = /* use 2nd Order Moment Advection for Temp */
(PID.TID 0000.0001)                   F
(PID.TID 0000.0001)     ;
(PID.TID 0000.0001) AdamsBashforthGt = /* apply Adams-Bashforth extrapolation on Gt */
(PID.TID 0000.0001)                   F
(PID.TID 0000.0001)     ;
(PID.TID 0000.0001) AdamsBashforth_T = /* apply Adams-Bashforth extrapolation on Temp */
(PID.TID 0000.0001)                   F
(PID.TID 0000.0001)     ;
(PID.TID 0000.0001) saltAdvScheme =   /* Salt. Horiz.advection scheme selector */
(PID.TID 0000.0001)                       7
(PID.TID 0000.0001)     ;
(PID.TID 0000.0001) saltVertAdvScheme =   /* Salt. Vert. Advection scheme selector */
(PID.TID 0000.0001)                       7
(PID.TID 0000.0001)     ;
(PID.TID 0000.0001) saltMultiDimAdvec =   /* use Muti-Dim Advec method for Salt */
(PID.TID 0000.0001)                   T
(PID.TID 0000.0001)     ;
(PID.TID 0000.0001) saltSOM_Advection = /* use 2nd Order Moment Advection for Salt */
(PID.TID 0000.0001)                   F
(PID.TID 0000.0001)     ;
(PID.TID 0000.0001) AdamsBashforthGs = /* apply Adams-Bashforth extrapolation on Gs */
(PID.TID 0000.0001)                   F
(PID.TID 0000.0001)     ;
(PID.TID 0000.0001) AdamsBashforth_S = /* apply Adams-Bashforth extrapolation on Salt */
(PID.TID 0000.0001)                   F
(PID.TID 0000.0001)     ;
(PID.TID 0000.0001) // ===================================
(PID.TID 0000.0001) OBCS_INIT_FIXED: Setting OB indices in Overlap
(PID.TID 0000.0001)  Sets OBS(i,bi,bj=   91,  1,  1)=    8
(PID.TID 0000.0001)  Sets OBS(i,bi,bj=   92,  1,  1)=    8
(PID.TID 0000.0001)  Sets OBS(i,bi,bj=   93,  1,  1)=    8
(PID.TID 0000.0001)  Sets OBS(i,bi,bj=   94,  1,  1)=    8
(PID.TID 0000.0001) OBCS_INIT_FIXED: Setting OB indices in Overlap <= done
(PID.TID 0000.0001) 
(PID.TID 0000.0001) // =======================================================
(PID.TID 0000.0001) // External forcing (EXF) configuration >>> START <<<
(PID.TID 0000.0001) // =======================================================
(PID.TID 0000.0001) 
(PID.TID 0000.0001)  EXF general parameters:
(PID.TID 0000.0001) 
(PID.TID 0000.0001) exf_iprec = /* exf file precision */
(PID.TID 0000.0001)                      32
(PID.TID 0000.0001)     ;
(PID.TID 0000.0001) useExfYearlyFields = /* add extension _YEAR to input file names */
(PID.TID 0000.0001)                   T
(PID.TID 0000.0001)     ;
(PID.TID 0000.0001) twoDigitYear = /* use 2-digit year extension */
(PID.TID 0000.0001)                   F
(PID.TID 0000.0001)     ;
(PID.TID 0000.0001) useExfCheckRange = /* check for fields range */
(PID.TID 0000.0001)                   F
(PID.TID 0000.0001)     ;
(PID.TID 0000.0001) exf_output_interp = /* output directly interpolation result */
(PID.TID 0000.0001)                   F
(PID.TID 0000.0001)     ;
(PID.TID 0000.0001) exf_debugLev = /* select EXF-debug printing level */
(PID.TID 0000.0001)                       2
(PID.TID 0000.0001)     ;
(PID.TID 0000.0001) exf_monFreq  = /* EXF monitor frequency [ s ] */
(PID.TID 0000.0001)                 2.400000000000000E+02
(PID.TID 0000.0001)     ;
(PID.TID 0000.0001) repeatPeriod = /* period for cycling forcing dataset [ s ] */
(PID.TID 0000.0001)                 0.000000000000000E+00
(PID.TID 0000.0001)     ;
(PID.TID 0000.0001) climTempFreeze= /* Minimum climatological temperature [deg.C] */
(PID.TID 0000.0001)                -1.900000000000000E+00
(PID.TID 0000.0001)     ;
(PID.TID 0000.0001) windStressMax = /* Maximum absolute windstress [ Pa ] */
(PID.TID 0000.0001)                 2.000000000000000E+00
(PID.TID 0000.0001)     ;
(PID.TID 0000.0001) stressIsOnCgrid = /* set u,v_stress on Arakawa C-grid */
(PID.TID 0000.0001)                   F
(PID.TID 0000.0001)     ;
(PID.TID 0000.0001) rotateStressOnAgrid = /* rotate u,v_stress on Arakawa A-grid */
(PID.TID 0000.0001)                   F
(PID.TID 0000.0001)     ;
(PID.TID 0000.0001) cen2kel = /* conversion of deg. Centigrade to Kelvin [K] */
(PID.TID 0000.0001)                 2.731500000000000E+02
(PID.TID 0000.0001)     ;
(PID.TID 0000.0001) gravity_mks= /* gravitational acceleration [m/s^2] */
(PID.TID 0000.0001)                 9.810000000000000E+00
(PID.TID 0000.0001)     ;
(PID.TID 0000.0001) atmrho =  /* mean atmospheric density [kg/m^3] */
(PID.TID 0000.0001)                 1.200000000000000E+00
(PID.TID 0000.0001)     ;
(PID.TID 0000.0001) atmcp =  /* mean atmospheric specific heat [J/kg/K] */
(PID.TID 0000.0001)                 1.005000000000000E+03
(PID.TID 0000.0001)     ;
(PID.TID 0000.0001) flamb =  /* latent heat of evaporation [J/kg] */
(PID.TID 0000.0001)                 2.500000000000000E+06
(PID.TID 0000.0001)     ;
(PID.TID 0000.0001) flami =  /* latent heat of pure-ice melting [J/kg] */
(PID.TID 0000.0001)                 3.340000000000000E+05
(PID.TID 0000.0001)     ;
(PID.TID 0000.0001) cvapor_fac = /* const. for Saturation calculation [?] */
(PID.TID 0000.0001)                 6.403800000000000E+05
(PID.TID 0000.0001)     ;
(PID.TID 0000.0001) cvapor_exp = /* const. for Saturation calculation [?] */
(PID.TID 0000.0001)                 5.107400000000000E+03
(PID.TID 0000.0001)     ;
(PID.TID 0000.0001) cvapor_fac_ice= /* const. for Saturation calculation [?] */
(PID.TID 0000.0001)                 1.163780000000000E+07
(PID.TID 0000.0001)     ;
(PID.TID 0000.0001) cvapor_exp_ice= /* const. for Saturation calculation [?] */
(PID.TID 0000.0001)                 5.897800000000000E+03
(PID.TID 0000.0001)     ;
(PID.TID 0000.0001) humid_fac = /* humidity coef. in virtual temp. [(kg/kg)^-1] */
(PID.TID 0000.0001)                 6.060000000000000E-01
(PID.TID 0000.0001)     ;
(PID.TID 0000.0001) gamma_blk = /* adiabatic lapse rate [?] */
(PID.TID 0000.0001)                 1.000000000000000E-02
(PID.TID 0000.0001)     ;
(PID.TID 0000.0001) saltsat = /* reduction of Qsat over salty water [-] */
(PID.TID 0000.0001)                 9.800000000000000E-01
(PID.TID 0000.0001)     ;
(PID.TID 0000.0001) noNegativeEvap = /* prevent negative Evaporation */
(PID.TID 0000.0001)                   F
(PID.TID 0000.0001)     ;
(PID.TID 0000.0001) sstExtrapol = /* extrapolation coeff from lev. 1 & 2 to surf [-] */
(PID.TID 0000.0001)                 0.000000000000000E+00
(PID.TID 0000.0001)     ;
(PID.TID 0000.0001) cDrag_1 = /* coef used in drag calculation [?] */
(PID.TID 0000.0001)                 2.700000000000000E-03
(PID.TID 0000.0001)     ;
(PID.TID 0000.0001) cDrag_2 = /* coef used in drag calculation [?] */
(PID.TID 0000.0001)                 1.420000000000000E-04
(PID.TID 0000.0001)     ;
(PID.TID 0000.0001) cDrag_3 = /* coef used in drag calculation [?] */
(PID.TID 0000.0001)                 7.640000000000000E-05
(PID.TID 0000.0001)     ;
(PID.TID 0000.0001) cStanton_1 = /* coef used in Stanton number calculation [?] */
(PID.TID 0000.0001)                 3.270000000000000E-02
(PID.TID 0000.0001)     ;
(PID.TID 0000.0001) cStanton_2 = /* coef used in Stanton number calculation [?] */
(PID.TID 0000.0001)                 1.800000000000000E-02
(PID.TID 0000.0001)     ;
(PID.TID 0000.0001) cDalton = /* coef used in Dalton number calculation [?] */
(PID.TID 0000.0001)                 3.460000000000000E-02
(PID.TID 0000.0001)     ;
(PID.TID 0000.0001) exf_scal_BulkCdn= /* Drag coefficient scaling factor [-] */
(PID.TID 0000.0001)                 9.997000000000000E-01
(PID.TID 0000.0001)     ;
(PID.TID 0000.0001) zolmin = /* minimum stability parameter [?] */
(PID.TID 0000.0001)                -1.000000000000000E+02
(PID.TID 0000.0001)     ;
(PID.TID 0000.0001) psim_fac = /* coef used in turbulent fluxes calculation [-] */
(PID.TID 0000.0001)                 5.000000000000000E+00
(PID.TID 0000.0001)     ;
(PID.TID 0000.0001) zref =  /* reference height [ m ] */
(PID.TID 0000.0001)                 1.000000000000000E+01
(PID.TID 0000.0001)     ;
(PID.TID 0000.0001) hu =  /* height of mean wind [ m ] */
(PID.TID 0000.0001)                 1.000000000000000E+01
(PID.TID 0000.0001)     ;
(PID.TID 0000.0001) ht =  /* height of mean temperature [ m ] */
(PID.TID 0000.0001)                 2.000000000000000E+00
(PID.TID 0000.0001)     ;
(PID.TID 0000.0001) hq =  /* height of mean spec.humidity [ m ] */
(PID.TID 0000.0001)                 2.000000000000000E+00
(PID.TID 0000.0001)     ;
(PID.TID 0000.0001) uMin = /* minimum wind speed [m/s] */
(PID.TID 0000.0001)                 5.000000000000000E-01
(PID.TID 0000.0001)     ;
(PID.TID 0000.0001) useStabilityFct_overIce= /* transfert Coeffs over sea-ice depend on stability */
(PID.TID 0000.0001)                   F
(PID.TID 0000.0001)     ;
(PID.TID 0000.0001) exf_iceCd = /* drag coefficient over sea-ice (fixed) [-] */
(PID.TID 0000.0001)                 1.630000000000000E-03
(PID.TID 0000.0001)     ;
(PID.TID 0000.0001) exf_iceCe = /* transfert coeff. over sea-ice, for Evap (fixed) [-] */
(PID.TID 0000.0001)                 1.630000000000000E-03
(PID.TID 0000.0001)     ;
(PID.TID 0000.0001) exf_iceCh = /* transfert coeff. over sea-ice, Sens.Heat.(fixed)[-] */
(PID.TID 0000.0001)                 1.630000000000000E-03
(PID.TID 0000.0001)     ;
(PID.TID 0000.0001) exf_albedo =  /* Sea-water albedo [-] */
(PID.TID 0000.0001)                 1.000000000000000E-01
(PID.TID 0000.0001)     ;
(PID.TID 0000.0001) useExfZenAlbedo = /* Sea-water albedo varies with zenith angle */
(PID.TID 0000.0001)                   F
(PID.TID 0000.0001)     ;
(PID.TID 0000.0001) select_ZenAlbedo = /* Sea-water albedo computation method */
(PID.TID 0000.0001)                       0
(PID.TID 0000.0001)     ;
(PID.TID 0000.0001) useExfZenIncoming = /* compute incoming solar radiation */
(PID.TID 0000.0001)                   F
(PID.TID 0000.0001)     ;
(PID.TID 0000.0001) ocean_emissivity = /* longwave ocean-surface emissivity [-] */
(PID.TID 0000.0001)                 9.700176366843034E-01
(PID.TID 0000.0001)     ;
(PID.TID 0000.0001) ice_emissivity = /* longwave seaice emissivity [-] */
(PID.TID 0000.0001)                 9.500000000000000E-01
(PID.TID 0000.0001)     ;
(PID.TID 0000.0001) snow_emissivity = /* longwave snow  emissivity [-] */
(PID.TID 0000.0001)                 9.500000000000000E-01
(PID.TID 0000.0001)     ;
(PID.TID 0000.0001) 
(PID.TID 0000.0001)  EXF main CPP flags:
(PID.TID 0000.0001) 
(PID.TID 0000.0001) // USE_EXF_INTERPOLATION:              defined
(PID.TID 0000.0001) // ALLOW_ATM_TEMP:                     defined
(PID.TID 0000.0001) // ALLOW_ATM_WIND (useAtmWind):        defined
(PID.TID 0000.0001) // ALLOW_DOWNWARD_RADIATION:           defined
(PID.TID 0000.0001) // ALLOW_BULKFORMULAE:                 defined
(PID.TID 0000.0001) 
(PID.TID 0000.0001)    Zonal wind forcing starts at                          0.
(PID.TID 0000.0001)    Zonal wind forcing period is                      10800.
(PID.TID 0000.0001)    Zonal wind forcing repeat-cycle is                    0.
(PID.TID 0000.0001)    Zonal wind forcing is read from file:
(PID.TID 0000.0001)    >> jra55/jra55_u10m <<
(PID.TID 0000.0001)    interpolate "uwind" (method= 12 ):
(PID.TID 0000.0001)    lon0=   0.00000, nlon=   640, lon_inc= 0.5625000
(PID.TID 0000.0001)    lat0= -89.57009, nlat=   320, inc(min,max)= 0.55691 0.56162
(PID.TID 0000.0001) 
(PID.TID 0000.0001)    Meridional wind forcing starts at                     0.
(PID.TID 0000.0001)    Meridional wind forcing period is                 10800.
(PID.TID 0000.0001)    Meridional wind forcing repeat-cycle is               0.
(PID.TID 0000.0001)    Meridional wind forcing is read from file:
(PID.TID 0000.0001)    >> jra55/jra55_v10m <<
(PID.TID 0000.0001)    interpolate "vwind" (method= 22 ):
(PID.TID 0000.0001)    lon0=   0.00000, nlon=   640, lon_inc= 0.5625000
(PID.TID 0000.0001)    lat0= -89.57009, nlat=   320, inc(min,max)= 0.55691 0.56162
(PID.TID 0000.0001)     Interp. U & V comp. together: uvInterp_wind =    T
(PID.TID 0000.0001) 
(PID.TID 0000.0001)    Atmospheric temperature starts at                     0.
(PID.TID 0000.0001)    Atmospheric temperature period is                 10800.
(PID.TID 0000.0001)    Atmospheric temperature repeat-cycle is               0.
(PID.TID 0000.0001)    Atmospheric temperature is read from file:
(PID.TID 0000.0001)    >> jra55/jra55_tmp2m_degC <<
(PID.TID 0000.0001)    interpolate "atemp" (method=  1 ):
(PID.TID 0000.0001)    lon0=   0.00000, nlon=   640, lon_inc= 0.5625000
(PID.TID 0000.0001)    lat0= -89.57009, nlat=   320, inc(min,max)= 0.55691 0.56162
(PID.TID 0000.0001) 
(PID.TID 0000.0001)    Atmospheric specific humidity starts at               0.
(PID.TID 0000.0001)    Atmospheric specific humidity period is           10800.
(PID.TID 0000.0001)    Atmospheric specific humidity rep-cycle is            0.
(PID.TID 0000.0001)    Atmospheric specific humidity is read from file:
(PID.TID 0000.0001)    >> jra55/jra55_spfh2m <<
(PID.TID 0000.0001)    interpolate "aqh" (method=  1 ):
(PID.TID 0000.0001)    lon0=   0.00000, nlon=   640, lon_inc= 0.5625000
(PID.TID 0000.0001)    lat0= -89.57009, nlat=   320, inc(min,max)= 0.55691 0.56162
(PID.TID 0000.0001) 
(PID.TID 0000.0001) // ALLOW_READ_TURBFLUXES:          NOT defined
(PID.TID 0000.0001) // EXF_READ_EVAP:                  NOT defined
(PID.TID 0000.0001) 
(PID.TID 0000.0001)    Precipitation data starts at                       5400.
(PID.TID 0000.0001)    Precipitation data period is                      10800.
(PID.TID 0000.0001)    Precipitation data repeat-cycle is                    0.
(PID.TID 0000.0001)    Precipitation data is read from file:
(PID.TID 0000.0001)    >> jra55/jra55_rain <<
(PID.TID 0000.0001)    interpolate "precip" (method=  1 ):
(PID.TID 0000.0001)    lon0=   0.00000, nlon=   640, lon_inc= 0.5625000
(PID.TID 0000.0001)    lat0= -89.57009, nlat=   320, inc(min,max)= 0.55691 0.56162
(PID.TID 0000.0001) 
(PID.TID 0000.0001) // ALLOW_RUNOFF:                       defined
(PID.TID 0000.0001)    Runoff data period is                               -12.
(PID.TID 0000.0001)    Runoff data is read from file:
(PID.TID 0000.0001)    >> runoff1p2472-360x180x12.bin <<
(PID.TID 0000.0001)    interpolate "runoff" (method=  1 ):
(PID.TID 0000.0001)    lon0=   0.50000, nlon=   360, lon_inc= 1.0000000
(PID.TID 0000.0001)    lat0= -89.50000, nlat=   180, lat_inc= 1.0000000
(PID.TID 0000.0001) 
(PID.TID 0000.0001) // ALLOW_RUNOFTEMP:                NOT defined
(PID.TID 0000.0001) // ALLOW_SALTFLX:                      defined
(PID.TID 0000.0001) 
(PID.TID 0000.0001)    Downward shortwave flux starts at                  5400.
(PID.TID 0000.0001)    Downward shortwave flux period is                 10800.
(PID.TID 0000.0001)    Downward shortwave flux repeat-cycle is               0.
(PID.TID 0000.0001)    Downward shortwave flux is read from file:
(PID.TID 0000.0001)    >> jra55/jra55_dsw <<
(PID.TID 0000.0001)    interpolate "swdown" (method=  1 ):
(PID.TID 0000.0001)    lon0=   0.00000, nlon=   640, lon_inc= 0.5625000
(PID.TID 0000.0001)    lat0= -89.57009, nlat=   320, inc(min,max)= 0.55691 0.56162
(PID.TID 0000.0001) 
(PID.TID 0000.0001)    Downward longwave flux starts at                   5400.
(PID.TID 0000.0001)    Downward longwave flux period is                  10800.
(PID.TID 0000.0001)    Downward longwave flux repeat-cycle is                0.
(PID.TID 0000.0001)    Downward longwave flux is read from file:
(PID.TID 0000.0001)    >> jra55/jra55_dlw <<
(PID.TID 0000.0001)    interpolate "lwdown" (method=  1 ):
(PID.TID 0000.0001)    lon0=   0.00000, nlon=   640, lon_inc= 0.5625000
(PID.TID 0000.0001)    lat0= -89.57009, nlat=   320, inc(min,max)= 0.55691 0.56162
(PID.TID 0000.0001) 
(PID.TID 0000.0001)    Atmospheric pressure forcing starts at                0.
(PID.TID 0000.0001)    Atmospheric pressure forcing period is            10800.
(PID.TID 0000.0001)    Atmospheric pressure forcing rep-cycle is             0.
(PID.TID 0000.0001)    Atmospheric pressure forcing is read from file:
(PID.TID 0000.0001)    >> jra55/jra55_pres <<
(PID.TID 0000.0001)    interpolate "apressure" (method=  1 ):
(PID.TID 0000.0001)    lon0=   0.00000, nlon=   640, lon_inc= 0.5625000
(PID.TID 0000.0001)    lat0= -89.57009, nlat=   320, inc(min,max)= 0.55691 0.56162
(PID.TID 0000.0001) 
(PID.TID 0000.0001)    Tidal geopotential starts at                          0.
(PID.TID 0000.0001)    Tidal geopotential period is                       3600.
(PID.TID 0000.0001)    Tidal geopotential repeat-cycle is                    0.
(PID.TID 0000.0001)    Tidal geopotential is read from file:
(PID.TID 0000.0001)    >> tide <<
(PID.TID 0000.0001)    interpolate "tidePot" (method=  1 ):
(PID.TID 0000.0001)    lon0=   0.00000, nlon=   360, lon_inc= 1.0000000
(PID.TID 0000.0001)    lat0= -90.00000, nlat=   181, lat_inc= 1.0000000
(PID.TID 0000.0001) 
(PID.TID 0000.0001) // =======================================================
(PID.TID 0000.0001) // External forcing (EXF) climatology configuration :
(PID.TID 0000.0001) // =======================================================
(PID.TID 0000.0001) 
(PID.TID 0000.0001) // ALLOW_CLIMSST_RELAXATION:       NOT defined
(PID.TID 0000.0001) 
(PID.TID 0000.0001) // ALLOW_CLIMSSS_RELAXATION:       NOT defined
(PID.TID 0000.0001) 
(PID.TID 0000.0001) // =======================================================
(PID.TID 0000.0001) // External forcing (EXF) configuration  >>> END <<<
(PID.TID 0000.0001) // =======================================================
(PID.TID 0000.0001) 
(PID.TID 0000.0001) ------------------------------------------------------------
(PID.TID 0000.0001) DIAGNOSTICS_SET_LEVELS: done
(PID.TID 0000.0001)  Total Nb of available Diagnostics: ndiagt=   213
(PID.TID 0000.0001)  write list of available Diagnostics to file: available_diagnostics.log
(PID.TID 0000.0001) SETDIAG: Allocate  1 x  1 Levels for Diagnostic #    23 ETAN
(PID.TID 0000.0001) SETDIAG: Allocate  1 x  1 Levels for Diagnostic #    80 oceTAUX
(PID.TID 0000.0001) SETDIAG: Allocate  1 x  1 Levels for Diagnostic #    81 oceTAUY
(PID.TID 0000.0001) SETDIAG: Allocate  1 x  1 Levels for Diagnostic #   185 EXFuwind
(PID.TID 0000.0001) SETDIAG: Allocate  1 x  1 Levels for Diagnostic #   186 EXFvwind
(PID.TID 0000.0001) SETDIAG: Allocate100 x  1 Levels for Diagnostic #    26 THETA
(PID.TID 0000.0001) SETDIAG: Allocate100 x  1 Levels for Diagnostic #    27 SALT
(PID.TID 0000.0001) SETDIAG: Allocate100 x  1 Levels for Diagnostic #    30 UVEL
(PID.TID 0000.0001) SETDIAG: Allocate100 x  1 Levels for Diagnostic #    31 VVEL
(PID.TID 0000.0001) SETDIAG: Allocate100 x  1 Levels for Diagnostic #    32 WVEL
(PID.TID 0000.0001) SETDIAG: Allocate100 x  1 Levels for Diagnostic #    36 UVELSQ
(PID.TID 0000.0001) SETDIAG: Allocate100 x  1 Levels for Diagnostic #    37 VVELSQ
(PID.TID 0000.0001) SETDIAG: Allocate100 x  1 Levels for Diagnostic #    52 WTHMASS
(PID.TID 0000.0001) SETDIAG: Allocate100 x  1 Levels for Diagnostic #    55 WSLTMASS
(PID.TID 0000.0001)   space allocated for all diagnostics:     905 levels
(PID.TID 0000.0001)   set mate pointer for diag #    80  oceTAUX  , Parms: UU      U1 , mate:    81
(PID.TID 0000.0001)   set mate pointer for diag #    81  oceTAUY  , Parms: VV      U1 , mate:    80
(PID.TID 0000.0001)   set mate pointer for diag #    30  UVEL     , Parms: UUR     MR , mate:    31
(PID.TID 0000.0001)   set mate pointer for diag #    31  VVEL     , Parms: VVR     MR , mate:    30
(PID.TID 0000.0001)   set mate pointer for diag #    36  UVELSQ   , Parms: UURP    MR , mate:    37
(PID.TID 0000.0001)   set mate pointer for diag #    37  VVELSQ   , Parms: VVRP    MR , mate:    36
(PID.TID 0000.0001) DIAGNOSTICS_SET_POINTERS: Set levels for Outp.Stream: diags/surface
(PID.TID 0000.0001)  Levels:       1.
(PID.TID 0000.0001) DIAGNOSTICS_SET_POINTERS: Set levels for Outp.Stream: diags/interior
(PID.TID 0000.0001)  Levels:       1.   2.   3.   4.   5.   6.   7.   8.   9.  10.  11.  12.  13.  14.  15.  16.  17.  18.  19.  20.
(PID.TID 0000.0001)  Levels:      21.  22.  23.  24.  25.  26.  27.  28.  29.  30.  31.  32.  33.  34.  35.  36.  37.  38.  39.  40.
(PID.TID 0000.0001)  Levels:      41.  42.  43.  44.  45.  46.  47.  48.  49.  50.  51.  52.  53.  54.  55.  56.  57.  58.  59.  60.
(PID.TID 0000.0001)  Levels:      61.  62.  63.  64.  65.  66.  67.  68.  69.  70.  71.  72.  73.  74.  75.  76.  77.  78.  79.  80.
(PID.TID 0000.0001)  Levels:      81.  82.  83.  84.  85.  86.  87.  88.  89.  90.  91.  92.  93.  94.  95.  96.  97.  98.  99. 100.
(PID.TID 0000.0001) DIAGNOSTICS_SET_POINTERS: done
(PID.TID 0000.0001) ------------------------------------------------------------
(PID.TID 0000.0001) DIAGSTATS_SET_REGIONS: define no region
(PID.TID 0000.0001) ------------------------------------------------------------
(PID.TID 0000.0001)   space allocated for all stats-diags:       0 levels
(PID.TID 0000.0001) DIAGSTATS_SET_POINTERS: done
(PID.TID 0000.0001) ------------------------------------------------------------
(PID.TID 0000.0001) %MON fCori_max                    =   1.0041453744604E-04
(PID.TID 0000.0001) %MON fCori_min                    =   6.5455127240189E-05
(PID.TID 0000.0001) %MON fCori_mean                   =   8.4108169069800E-05
(PID.TID 0000.0001) %MON fCori_sd                     =   1.0123559863785E-05
(PID.TID 0000.0001) %MON fCoriG_max                   =   1.0038858482075E-04
(PID.TID 0000.0001) %MON fCoriG_min                   =   6.5416191986868E-05
(PID.TID 0000.0001) %MON fCoriG_mean                  =   8.4075736074280E-05
(PID.TID 0000.0001) %MON fCoriG_sd                    =   1.0127339310370E-05
(PID.TID 0000.0001) %MON fCoriCos_max                 =   1.3032901623502E-04
(PID.TID 0000.0001) %MON fCoriCos_min                 =   1.0576836400510E-04
(PID.TID 0000.0001) %MON fCoriCos_mean                =   1.1849999056980E-04
(PID.TID 0000.0001) %MON fCoriCos_sd                  =   7.1489734356779E-06
(PID.TID 0000.0001) INI_CG2D: CG2D normalisation factor =  1.4987118910715993E-04
(PID.TID 0000.0001) INI_CG2D: cg2dTolerance = 7.057349561527589E-12 (Area=1.1301464310E+13)
(PID.TID 0000.0001) 
(PID.TID 0000.0001) // =======================================================
(PID.TID 0000.0001) // Model configuration
(PID.TID 0000.0001) // =======================================================
(PID.TID 0000.0001) //
(PID.TID 0000.0001) // "Physical" paramters ( PARM01 in namelist )
(PID.TID 0000.0001) //
(PID.TID 0000.0001) buoyancyRelation = /* Type of relation to get Buoyancy */
(PID.TID 0000.0001)               'OCEANIC'
(PID.TID 0000.0001)     ;
(PID.TID 0000.0001) fluidIsAir   =  /* fluid major constituent is Air */
(PID.TID 0000.0001)                   F
(PID.TID 0000.0001)     ;
(PID.TID 0000.0001) fluidIsWater =  /* fluid major constituent is Water */
(PID.TID 0000.0001)                   T
(PID.TID 0000.0001)     ;
(PID.TID 0000.0001) usingPCoords =  /* use p (or p*) vertical coordinate */
(PID.TID 0000.0001)                   F
(PID.TID 0000.0001)     ;
(PID.TID 0000.0001) usingZCoords =  /* use z (or z*) vertical coordinate */
(PID.TID 0000.0001)                   T
(PID.TID 0000.0001)     ;
(PID.TID 0000.0001) tRef =   /* Reference temperature profile ( oC or K ) */
(PID.TID 0000.0001)     5 @  1.889000000000000E+01,             /* K =  1:  5 */
(PID.TID 0000.0001)                 1.887000000000000E+01,      /* K =  6 */
(PID.TID 0000.0001)                 1.885000000000000E+01,      /* K =  7 */
(PID.TID 0000.0001)                 1.882000000000000E+01,      /* K =  8 */
(PID.TID 0000.0001)                 1.880000000000000E+01,      /* K =  9 */
(PID.TID 0000.0001)                 1.873000000000000E+01,      /* K = 10 */
(PID.TID 0000.0001)                 1.863000000000000E+01,      /* K = 11 */
(PID.TID 0000.0001)                 1.849000000000000E+01,      /* K = 12 */
(PID.TID 0000.0001)                 1.828000000000000E+01,      /* K = 13 */
(PID.TID 0000.0001)                 1.808000000000000E+01,      /* K = 14 */
(PID.TID 0000.0001)                 1.786000000000000E+01,      /* K = 15 */
(PID.TID 0000.0001)                 1.763000000000000E+01,      /* K = 16 */
(PID.TID 0000.0001)                 1.740000000000000E+01,      /* K = 17 */
(PID.TID 0000.0001)                 1.718000000000000E+01,      /* K = 18 */
(PID.TID 0000.0001)                 1.695000000000000E+01,      /* K = 19 */
(PID.TID 0000.0001)                 1.673000000000000E+01,      /* K = 20 */
(PID.TID 0000.0001)                 1.652000000000000E+01,      /* K = 21 */
(PID.TID 0000.0001)                 1.631000000000000E+01,      /* K = 22 */
(PID.TID 0000.0001)                 1.610000000000000E+01,      /* K = 23 */
(PID.TID 0000.0001)                 1.589000000000000E+01,      /* K = 24 */
(PID.TID 0000.0001)                 1.569000000000000E+01,      /* K = 25 */
(PID.TID 0000.0001)                 1.549000000000000E+01,      /* K = 26 */
(PID.TID 0000.0001)                 1.528000000000000E+01,      /* K = 27 */
(PID.TID 0000.0001)                 1.508000000000000E+01,      /* K = 28 */
(PID.TID 0000.0001)                 1.488000000000000E+01,      /* K = 29 */
(PID.TID 0000.0001)                 1.467000000000000E+01,      /* K = 30 */
(PID.TID 0000.0001)                 1.447000000000000E+01,      /* K = 31 */
(PID.TID 0000.0001)                 1.425000000000000E+01,      /* K = 32 */
(PID.TID 0000.0001)                 1.403000000000000E+01,      /* K = 33 */
(PID.TID 0000.0001)                 1.380000000000000E+01,      /* K = 34 */
(PID.TID 0000.0001)                 1.355000000000000E+01,      /* K = 35 */
(PID.TID 0000.0001)                 1.329000000000000E+01,      /* K = 36 */
(PID.TID 0000.0001)                 1.301000000000000E+01,      /* K = 37 */
(PID.TID 0000.0001)                 1.273000000000000E+01,      /* K = 38 */
(PID.TID 0000.0001)                 1.242000000000000E+01,      /* K = 39 */
(PID.TID 0000.0001)                 1.211000000000000E+01,      /* K = 40 */
(PID.TID 0000.0001)                 1.178000000000000E+01,      /* K = 41 */
(PID.TID 0000.0001)                 1.143000000000000E+01,      /* K = 42 */
(PID.TID 0000.0001)                 1.107000000000000E+01,      /* K = 43 */
(PID.TID 0000.0001)                 1.070000000000000E+01,      /* K = 44 */
(PID.TID 0000.0001)                 1.031000000000000E+01,      /* K = 45 */
(PID.TID 0000.0001)                 9.930000000000000E+00,      /* K = 46 */
(PID.TID 0000.0001)                 9.529999999999999E+00,      /* K = 47 */
(PID.TID 0000.0001)                 9.109999999999999E+00,      /* K = 48 */
(PID.TID 0000.0001)                 8.710000000000001E+00,      /* K = 49 */
(PID.TID 0000.0001)                 8.289999999999999E+00,      /* K = 50 */
(PID.TID 0000.0001)                 7.890000000000000E+00,      /* K = 51 */
(PID.TID 0000.0001)                 7.510000000000000E+00,      /* K = 52 */
(PID.TID 0000.0001)                 7.130000000000000E+00,      /* K = 53 */
(PID.TID 0000.0001)                 6.780000000000000E+00,      /* K = 54 */
(PID.TID 0000.0001)                 6.440000000000000E+00,      /* K = 55 */
(PID.TID 0000.0001)                 6.110000000000000E+00,      /* K = 56 */
(PID.TID 0000.0001)                 5.810000000000000E+00,      /* K = 57 */
(PID.TID 0000.0001)                 5.510000000000000E+00,      /* K = 58 */
(PID.TID 0000.0001)                 5.230000000000000E+00,      /* K = 59 */
(PID.TID 0000.0001)                 4.970000000000000E+00,      /* K = 60 */
(PID.TID 0000.0001)                 4.730000000000000E+00,      /* K = 61 */
(PID.TID 0000.0001)                 4.510000000000000E+00,      /* K = 62 */
(PID.TID 0000.0001)                 4.300000000000000E+00,      /* K = 63 */
(PID.TID 0000.0001)                 4.110000000000000E+00,      /* K = 64 */
(PID.TID 0000.0001)                 3.940000000000000E+00,      /* K = 65 */
(PID.TID 0000.0001)                 3.780000000000000E+00,      /* K = 66 */
(PID.TID 0000.0001)                 3.630000000000000E+00,      /* K = 67 */
(PID.TID 0000.0001)                 3.500000000000000E+00,      /* K = 68 */
(PID.TID 0000.0001)                 3.380000000000000E+00,      /* K = 69 */
(PID.TID 0000.0001)                 3.250000000000000E+00,      /* K = 70 */
(PID.TID 0000.0001)                 3.140000000000000E+00,      /* K = 71 */
(PID.TID 0000.0001)                 3.040000000000000E+00,      /* K = 72 */
(PID.TID 0000.0001)                 2.940000000000000E+00,      /* K = 73 */
(PID.TID 0000.0001)                 2.830000000000000E+00,      /* K = 74 */
(PID.TID 0000.0001)                 2.740000000000000E+00,      /* K = 75 */
(PID.TID 0000.0001)                 2.640000000000000E+00,      /* K = 76 */
(PID.TID 0000.0001)                 2.540000000000000E+00,      /* K = 77 */
(PID.TID 0000.0001)                 2.450000000000000E+00,      /* K = 78 */
(PID.TID 0000.0001)                 2.360000000000000E+00,      /* K = 79 */
(PID.TID 0000.0001)                 2.270000000000000E+00,      /* K = 80 */
(PID.TID 0000.0001)                 2.190000000000000E+00,      /* K = 81 */
(PID.TID 0000.0001)                 2.100000000000000E+00,      /* K = 82 */
(PID.TID 0000.0001)                 2.030000000000000E+00,      /* K = 83 */
(PID.TID 0000.0001)                 1.950000000000000E+00,      /* K = 84 */
(PID.TID 0000.0001)                 1.860000000000000E+00,      /* K = 85 */
(PID.TID 0000.0001)                 1.780000000000000E+00,      /* K = 86 */
(PID.TID 0000.0001)                 1.700000000000000E+00,      /* K = 87 */
(PID.TID 0000.0001)                 1.630000000000000E+00,      /* K = 88 */
(PID.TID 0000.0001)                 1.550000000000000E+00,      /* K = 89 */
(PID.TID 0000.0001)                 1.480000000000000E+00,      /* K = 90 */
(PID.TID 0000.0001)                 1.410000000000000E+00,      /* K = 91 */
(PID.TID 0000.0001)                 1.340000000000000E+00,      /* K = 92 */
(PID.TID 0000.0001)                 1.270000000000000E+00,      /* K = 93 */
(PID.TID 0000.0001)                 1.200000000000000E+00,      /* K = 94 */
(PID.TID 0000.0001)                 1.130000000000000E+00,      /* K = 95 */
(PID.TID 0000.0001)                 1.060000000000000E+00,      /* K = 96 */
(PID.TID 0000.0001)                 1.000000000000000E+00,      /* K = 97 */
(PID.TID 0000.0001)                 9.600000000000000E-01,      /* K = 98 */
(PID.TID 0000.0001)                 9.300000000000000E-01,      /* K = 99 */
(PID.TID 0000.0001)                 9.100000000000000E-01       /* K =100 */
(PID.TID 0000.0001)     ;
(PID.TID 0000.0001) sRef =   /* Reference salinity profile ( psu ) */
(PID.TID 0000.0001)     6 @  3.484000000000000E+01,             /* K =  1:  6 */
(PID.TID 0000.0001)     3 @  3.485000000000000E+01,             /* K =  7:  9 */
(PID.TID 0000.0001)                 3.486000000000000E+01,      /* K = 10 */
(PID.TID 0000.0001)                 3.487000000000000E+01,      /* K = 11 */
(PID.TID 0000.0001)                 3.488000000000000E+01,      /* K = 12 */
(PID.TID 0000.0001)                 3.490000000000000E+01,      /* K = 13 */
(PID.TID 0000.0001)                 3.491000000000000E+01,      /* K = 14 */
(PID.TID 0000.0001)                 3.493000000000000E+01,      /* K = 15 */
(PID.TID 0000.0001)                 3.495000000000000E+01,      /* K = 16 */
(PID.TID 0000.0001)                 3.496000000000000E+01,      /* K = 17 */
(PID.TID 0000.0001)                 3.498000000000000E+01,      /* K = 18 */
(PID.TID 0000.0001)                 3.499000000000000E+01,      /* K = 19 */
(PID.TID 0000.0001)                 3.500000000000000E+01,      /* K = 20 */
(PID.TID 0000.0001)                 3.501000000000000E+01,      /* K = 21 */
(PID.TID 0000.0001)                 3.502000000000000E+01,      /* K = 22 */
(PID.TID 0000.0001)                 3.503000000000000E+01,      /* K = 23 */
(PID.TID 0000.0001)                 3.504000000000000E+01,      /* K = 24 */
(PID.TID 0000.0001)                 3.505000000000000E+01,      /* K = 25 */
(PID.TID 0000.0001)                 3.506000000000000E+01,      /* K = 26 */
(PID.TID 0000.0001)     7 @  3.507000000000000E+01,             /* K = 27: 33 */
(PID.TID 0000.0001)                 3.506000000000000E+01,      /* K = 34 */
(PID.TID 0000.0001)                 3.505000000000000E+01,      /* K = 35 */
(PID.TID 0000.0001)                 3.504000000000000E+01,      /* K = 36 */
(PID.TID 0000.0001)                 3.503000000000000E+01,      /* K = 37 */
(PID.TID 0000.0001)                 3.502000000000000E+01,      /* K = 38 */
(PID.TID 0000.0001)                 3.501000000000000E+01,      /* K = 39 */
(PID.TID 0000.0001)                 3.499000000000000E+01,      /* K = 40 */
(PID.TID 0000.0001)                 3.497000000000000E+01,      /* K = 41 */
(PID.TID 0000.0001)                 3.495000000000000E+01,      /* K = 42 */
(PID.TID 0000.0001)                 3.492000000000000E+01,      /* K = 43 */
(PID.TID 0000.0001)                 3.490000000000000E+01,      /* K = 44 */
(PID.TID 0000.0001)                 3.487000000000000E+01,      /* K = 45 */
(PID.TID 0000.0001)                 3.484000000000000E+01,      /* K = 46 */
(PID.TID 0000.0001)                 3.481000000000000E+01,      /* K = 47 */
(PID.TID 0000.0001)                 3.478000000000000E+01,      /* K = 48 */
(PID.TID 0000.0001)                 3.475000000000000E+01,      /* K = 49 */
(PID.TID 0000.0001)                 3.472000000000000E+01,      /* K = 50 */
(PID.TID 0000.0001)                 3.469000000000000E+01,      /* K = 51 */
(PID.TID 0000.0001)                 3.467000000000000E+01,      /* K = 52 */
(PID.TID 0000.0001)                 3.465000000000000E+01,      /* K = 53 */
(PID.TID 0000.0001)                 3.462000000000000E+01,      /* K = 54 */
(PID.TID 0000.0001)                 3.461000000000000E+01,      /* K = 55 */
(PID.TID 0000.0001)                 3.460000000000000E+01,      /* K = 56 */
(PID.TID 0000.0001)     2 @  3.459000000000000E+01,             /* K = 57: 58 */
(PID.TID 0000.0001)                 3.458000000000000E+01,      /* K = 59 */
(PID.TID 0000.0001)     2 @  3.459000000000000E+01,             /* K = 60: 61 */
(PID.TID 0000.0001)     2 @  3.460000000000000E+01,             /* K = 62: 63 */
(PID.TID 0000.0001)                 3.461000000000000E+01,      /* K = 64 */
(PID.TID 0000.0001)                 3.462000000000000E+01,      /* K = 65 */
(PID.TID 0000.0001)                 3.463000000000000E+01,      /* K = 66 */
(PID.TID 0000.0001)                 3.464000000000000E+01,      /* K = 67 */
(PID.TID 0000.0001)                 3.465000000000000E+01,      /* K = 68 */
(PID.TID 0000.0001)                 3.466000000000000E+01,      /* K = 69 */
(PID.TID 0000.0001)     2 @  3.467000000000000E+01,             /* K = 70: 71 */
(PID.TID 0000.0001)                 3.468000000000000E+01,      /* K = 72 */
(PID.TID 0000.0001)                 3.469000000000000E+01,      /* K = 73 */
(PID.TID 0000.0001)                 3.470000000000000E+01,      /* K = 74 */
(PID.TID 0000.0001)     2 @  3.471000000000000E+01,             /* K = 75: 76 */
(PID.TID 0000.0001)     2 @  3.472000000000000E+01,             /* K = 77: 78 */
(PID.TID 0000.0001)     3 @  3.473000000000000E+01,             /* K = 79: 81 */
(PID.TID 0000.0001)     4 @  3.474000000000000E+01,             /* K = 82: 85 */
(PID.TID 0000.0001)                 3.475000000000000E+01,      /* K = 86 */
(PID.TID 0000.0001)     8 @  3.474000000000000E+01,             /* K = 87: 94 */
(PID.TID 0000.0001)     6 @  3.473000000000000E+01              /* K = 95:100 */
(PID.TID 0000.0001)     ;
(PID.TID 0000.0001) useStrainTensionVisc= /* Use StrainTension Form of Viscous Operator */
(PID.TID 0000.0001)                   F
(PID.TID 0000.0001)     ;
(PID.TID 0000.0001) useVariableVisc = /* Use variable horizontal viscosity */
(PID.TID 0000.0001)                   T
(PID.TID 0000.0001)     ;
(PID.TID 0000.0001) useHarmonicVisc = /* Use harmonic horizontal viscosity */
(PID.TID 0000.0001)                   F
(PID.TID 0000.0001)     ;
(PID.TID 0000.0001) useBiharmonicVisc= /* Use biharmonic horiz.  viscosity */
(PID.TID 0000.0001)                   T
(PID.TID 0000.0001)     ;
(PID.TID 0000.0001) useSmag3D = /* Use isotropic 3-D Smagorinsky viscosity */
(PID.TID 0000.0001)                   F
(PID.TID 0000.0001)     ;
(PID.TID 0000.0001) viscAh  =   /* Lateral harmonic viscosity ( m^2/s ) */
(PID.TID 0000.0001)                 0.000000000000000E+00
(PID.TID 0000.0001)     ;
(PID.TID 0000.0001) viscAhMax = /* Maximum lateral harmonic viscosity ( m^2/s ) */
(PID.TID 0000.0001)                 1.000000000000000E+21
(PID.TID 0000.0001)     ;
(PID.TID 0000.0001) viscAhGrid = /* Grid dependent lateral harmonic viscosity ( non-dim. ) */
(PID.TID 0000.0001)                 0.000000000000000E+00
(PID.TID 0000.0001)     ;
(PID.TID 0000.0001) useFullLeith = /* Use Full Form of Leith Viscosity on/off flag*/
(PID.TID 0000.0001)                   F
(PID.TID 0000.0001)     ;
(PID.TID 0000.0001) useAreaViscLength = /* Use area for visc length instead of geom. mean*/
(PID.TID 0000.0001)                   T
(PID.TID 0000.0001)     ;
(PID.TID 0000.0001) viscC2leith = /* Leith harmonic visc. factor (on grad(vort),non-dim.) */
(PID.TID 0000.0001)                 0.000000000000000E+00
(PID.TID 0000.0001)     ;
(PID.TID 0000.0001) viscC2leithD = /* Leith harmonic viscosity factor (on grad(div),non-dim.)*/
(PID.TID 0000.0001)                 0.000000000000000E+00
(PID.TID 0000.0001)     ;
(PID.TID 0000.0001) viscC2smag = /* Smagorinsky harmonic viscosity factor (non-dim.) */
(PID.TID 0000.0001)                 0.000000000000000E+00
(PID.TID 0000.0001)     ;
(PID.TID 0000.0001) viscA4  =   /* Lateral biharmonic viscosity ( m^4/s ) */
(PID.TID 0000.0001)                 0.000000000000000E+00
(PID.TID 0000.0001)     ;
(PID.TID 0000.0001) viscA4Max = /* Maximum biharmonic viscosity ( m^2/s ) */
(PID.TID 0000.0001)                 1.000000000000000E+21
(PID.TID 0000.0001)     ;
(PID.TID 0000.0001) viscA4Grid = /* Grid dependent biharmonic viscosity ( non-dim. ) */
(PID.TID 0000.0001)                 0.000000000000000E+00
(PID.TID 0000.0001)     ;
(PID.TID 0000.0001) viscC4leith = /* Leith biharm viscosity factor (on grad(vort), non-dim.)*/
(PID.TID 0000.0001)                 2.000000000000000E+00
(PID.TID 0000.0001)     ;
(PID.TID 0000.0001) viscC4leithD = /* Leith biharm viscosity factor (on grad(div), non-dim.) */
(PID.TID 0000.0001)                 2.000000000000000E+00
(PID.TID 0000.0001)     ;
(PID.TID 0000.0001) viscC4Smag = /* Smagorinsky biharm viscosity factor (non-dim) */
(PID.TID 0000.0001)                 0.000000000000000E+00
(PID.TID 0000.0001)     ;
(PID.TID 0000.0001) no_slip_sides =  /* Viscous BCs: No-slip sides */
(PID.TID 0000.0001)                   T
(PID.TID 0000.0001)     ;
(PID.TID 0000.0001) sideDragFactor = /* side-drag scaling factor (non-dim) */
(PID.TID 0000.0001)                 2.000000000000000E+00
(PID.TID 0000.0001)     ;
(PID.TID 0000.0001) viscArNr = /* vertical profile of vertical viscosity ( m^2/s )*/
(PID.TID 0000.0001)   100 @  5.000000000000000E-04              /* K =  1:100 */
(PID.TID 0000.0001)     ;
(PID.TID 0000.0001) no_slip_bottom =  /* Viscous BCs: No-slip bottom */
(PID.TID 0000.0001)                   T
(PID.TID 0000.0001)     ;
(PID.TID 0000.0001) bottomVisc_pCell = /* Partial-cell in bottom Visc. BC */
(PID.TID 0000.0001)                   F
(PID.TID 0000.0001)     ;
(PID.TID 0000.0001) bottomDragLinear = /* linear bottom-drag coefficient ( m/s ) */
(PID.TID 0000.0001)                 0.000000000000000E+00
(PID.TID 0000.0001)     ;
(PID.TID 0000.0001) bottomDragQuadratic = /* quadratic bottom-drag coefficient (-) */
(PID.TID 0000.0001)                 2.000000000000000E-03
(PID.TID 0000.0001)     ;
(PID.TID 0000.0001) selectBotDragQuadr = /* select quadratic bottom drag options */
(PID.TID 0000.0001)                       0
(PID.TID 0000.0001)     ;
(PID.TID 0000.0001) diffKhT =   /* Laplacian diffusion of heat laterally ( m^2/s ) */
(PID.TID 0000.0001)                 0.000000000000000E+00
(PID.TID 0000.0001)     ;
(PID.TID 0000.0001) diffK4T =   /* Biharmonic diffusion of heat laterally ( m^4/s ) */
(PID.TID 0000.0001)                 0.000000000000000E+00
(PID.TID 0000.0001)     ;
(PID.TID 0000.0001) diffKhS =   /* Laplacian diffusion of salt laterally ( m^2/s ) */
(PID.TID 0000.0001)                 0.000000000000000E+00
(PID.TID 0000.0001)     ;
(PID.TID 0000.0001) diffK4S =   /* Biharmonic diffusion of salt laterally ( m^4/s ) */
(PID.TID 0000.0001)                 0.000000000000000E+00
(PID.TID 0000.0001)     ;
(PID.TID 0000.0001) diffKrNrT = /* vertical profile of vertical diffusion of Temp ( m^2/s )*/
(PID.TID 0000.0001)   100 @  1.000000000000000E-05              /* K =  1:100 */
(PID.TID 0000.0001)     ;
(PID.TID 0000.0001) diffKrNrS = /* vertical profile of vertical diffusion of Salt ( m^2/s )*/
(PID.TID 0000.0001)   100 @  1.000000000000000E-05              /* K =  1:100 */
(PID.TID 0000.0001)     ;
(PID.TID 0000.0001) diffKrBL79surf = /* Surface diffusion for Bryan and Lewis 79 ( m^2/s ) */
(PID.TID 0000.0001)                 0.000000000000000E+00
(PID.TID 0000.0001)     ;
(PID.TID 0000.0001) diffKrBL79deep = /* Deep diffusion for Bryan and Lewis 1979 ( m^2/s ) */
(PID.TID 0000.0001)                 0.000000000000000E+00
(PID.TID 0000.0001)     ;
(PID.TID 0000.0001) diffKrBL79scl = /* Depth scale for Bryan and Lewis 1979 ( m ) */
(PID.TID 0000.0001)                 2.000000000000000E+02
(PID.TID 0000.0001)     ;
(PID.TID 0000.0001) diffKrBL79Ho = /* Turning depth for Bryan and Lewis 1979 ( m ) */
(PID.TID 0000.0001)                -2.000000000000000E+03
(PID.TID 0000.0001)     ;
(PID.TID 0000.0001) ivdc_kappa = /* Implicit Vertical Diffusivity for Convection ( m^2/s) */
(PID.TID 0000.0001)                 0.000000000000000E+00
(PID.TID 0000.0001)     ;
(PID.TID 0000.0001) hMixCriteria=  /* Criteria for mixed-layer diagnostic */
(PID.TID 0000.0001)                -8.000000000000000E-01
(PID.TID 0000.0001)     ;
(PID.TID 0000.0001) dRhoSmall =  /* Parameter for mixed-layer diagnostic */
(PID.TID 0000.0001)                 1.000000000000000E-06
(PID.TID 0000.0001)     ;
(PID.TID 0000.0001) hMixSmooth=  /* Smoothing parameter for mixed-layer diagnostic */
(PID.TID 0000.0001)                 0.000000000000000E+00
(PID.TID 0000.0001)     ;
(PID.TID 0000.0001) eosType =  /* Type of Equation of State */
(PID.TID 0000.0001)               'JMD95Z'
(PID.TID 0000.0001)     ;
(PID.TID 0000.0001) selectP_inEOS_Zc = /* select pressure to use in EOS (0,1,2,3) */
(PID.TID 0000.0001)                       0
(PID.TID 0000.0001)     0= -g*rhoConst*z ; 1= pRef (from tRef,sRef); 2= Hyd P ; 3= Hyd+NH P
(PID.TID 0000.0001)     ;
(PID.TID 0000.0001) HeatCapacity_Cp =  /* Specific heat capacity ( J/kg/K ) */
(PID.TID 0000.0001)                 3.994000000000000E+03
(PID.TID 0000.0001)     ;
(PID.TID 0000.0001) celsius2K = /* 0 degree Celsius converted to Kelvin ( K ) */
(PID.TID 0000.0001)                 2.731500000000000E+02
(PID.TID 0000.0001)     ;
(PID.TID 0000.0001) rhoConst  = /* Reference density (Boussinesq)  ( kg/m^3 ) */
(PID.TID 0000.0001)                 1.029000000000000E+03
(PID.TID 0000.0001)     ;
(PID.TID 0000.0001) rhoFacC = /* normalized Reference density @ cell-Center (-) */
(PID.TID 0000.0001)   100 @  1.000000000000000E+00              /* K =  1:100 */
(PID.TID 0000.0001)     ;
(PID.TID 0000.0001) rhoFacF = /* normalized Reference density @ W-Interface (-) */
(PID.TID 0000.0001)   101 @  1.000000000000000E+00              /* K =  1:101 */
(PID.TID 0000.0001)     ;
(PID.TID 0000.0001) rhoConstFresh = /* Fresh-water reference density ( kg/m^3 ) */
(PID.TID 0000.0001)                 1.000000000000000E+03
(PID.TID 0000.0001)     ;
(PID.TID 0000.0001) gravity =   /* Gravitational acceleration ( m/s^2 ) */
(PID.TID 0000.0001)                 9.810000000000000E+00
(PID.TID 0000.0001)     ;
(PID.TID 0000.0001) gBaro =   /* Barotropic gravity ( m/s^2 ) */
(PID.TID 0000.0001)                 9.810000000000000E+00
(PID.TID 0000.0001)     ;
(PID.TID 0000.0001) gravFacC = /* gravity factor (vs surf.) @ cell-Center (-) */
(PID.TID 0000.0001)   100 @  1.000000000000000E+00              /* K =  1:100 */
(PID.TID 0000.0001)     ;
(PID.TID 0000.0001) gravFacF = /* gravity factor (vs surf.) @ W-Interface (-) */
(PID.TID 0000.0001)   101 @  1.000000000000000E+00              /* K =  1:101 */
(PID.TID 0000.0001)     ;
(PID.TID 0000.0001) rotationPeriod =   /* Rotation Period ( s ) */
(PID.TID 0000.0001)                 8.616400000000000E+04
(PID.TID 0000.0001)     ;
(PID.TID 0000.0001) omega =   /* Angular velocity ( rad/s ) */
(PID.TID 0000.0001)                 7.292123516990375E-05
(PID.TID 0000.0001)     ;
(PID.TID 0000.0001) f0 =   /* Reference coriolis parameter ( 1/s ) */
(PID.TID 0000.0001)                 1.000000000000000E-04
(PID.TID 0000.0001)     ;
(PID.TID 0000.0001) beta =   /* Beta ( 1/(m.s) ) */
(PID.TID 0000.0001)                 9.999999999999999E-12
(PID.TID 0000.0001)     ;
(PID.TID 0000.0001) fPrime =   /* Second coriolis parameter ( 1/s ) */
(PID.TID 0000.0001)                 0.000000000000000E+00
(PID.TID 0000.0001)     ;
(PID.TID 0000.0001) rigidLid =   /* Rigid lid on/off flag */
(PID.TID 0000.0001)                   F
(PID.TID 0000.0001)     ;
(PID.TID 0000.0001) implicitFreeSurface =   /* Implicit free surface on/off flag */
(PID.TID 0000.0001)                   T
(PID.TID 0000.0001)     ;
(PID.TID 0000.0001) freeSurfFac =   /* Implicit free surface factor */
(PID.TID 0000.0001)                 1.000000000000000E+00
(PID.TID 0000.0001)     ;
(PID.TID 0000.0001) implicSurfPress =  /* Surface Pressure implicit factor (0-1)*/
(PID.TID 0000.0001)                 1.000000000000000E+00
(PID.TID 0000.0001)     ;
(PID.TID 0000.0001) implicDiv2DFlow =  /* Barot. Flow Div. implicit factor (0-1)*/
(PID.TID 0000.0001)                 1.000000000000000E+00
(PID.TID 0000.0001)     ;
(PID.TID 0000.0001) uniformLin_PhiSurf = /* use uniform Bo_surf on/off flag*/
(PID.TID 0000.0001)                   T
(PID.TID 0000.0001)     ;
(PID.TID 0000.0001) uniformFreeSurfLev = /* free-surface level-index is uniform */
(PID.TID 0000.0001)                   T
(PID.TID 0000.0001)     ;
(PID.TID 0000.0001) hFacMin =   /* minimum partial cell factor (hFac) */
(PID.TID 0000.0001)                 2.000000000000000E-01
(PID.TID 0000.0001)     ;
(PID.TID 0000.0001) hFacMinDr = /* minimum partial cell thickness ( m) */
(PID.TID 0000.0001)                 5.000000000000000E+00
(PID.TID 0000.0001)     ;
(PID.TID 0000.0001) exactConserv =  /* Exact Volume Conservation on/off flag*/
(PID.TID 0000.0001)                   T
(PID.TID 0000.0001)     ;
(PID.TID 0000.0001) linFSConserveTr = /* Tracer correction for Lin Free Surface on/off flag*/
(PID.TID 0000.0001)                   F
(PID.TID 0000.0001)     ;
(PID.TID 0000.0001) nonlinFreeSurf = /* Non-linear Free Surf. options (-1,0,1,2,3)*/
(PID.TID 0000.0001)                       0
(PID.TID 0000.0001)      -1,0= Off ; 1,2,3= On, 2=+rescale gU,gV, 3=+update cg2d solv.
(PID.TID 0000.0001)     ;
(PID.TID 0000.0001) hFacInf =   /* lower threshold for hFac (nonlinFreeSurf only)*/
(PID.TID 0000.0001)                 2.000000000000000E-01
(PID.TID 0000.0001)     ;
(PID.TID 0000.0001) hFacSup =   /* upper threshold for hFac (nonlinFreeSurf only)*/
(PID.TID 0000.0001)                 2.000000000000000E+00
(PID.TID 0000.0001)     ;
(PID.TID 0000.0001) select_rStar = /* r* Vertical coord. options (=0 r coord.; >0 uses r*)*/
(PID.TID 0000.0001)                       0
(PID.TID 0000.0001)     ;
(PID.TID 0000.0001) useRealFreshWaterFlux = /* Real Fresh Water Flux on/off flag*/
(PID.TID 0000.0001)                   F
(PID.TID 0000.0001)     ;
(PID.TID 0000.0001) temp_EvPrRn = /* Temp. of Evap/Prec/R (UNSET=use local T)(oC)*/
(PID.TID 0000.0001)                 0.000000000000000E+00
(PID.TID 0000.0001)     ;
(PID.TID 0000.0001) salt_EvPrRn = /* Salin. of Evap/Prec/R (UNSET=use local S)(psu)*/
(PID.TID 0000.0001)                 0.000000000000000E+00
(PID.TID 0000.0001)     ;
(PID.TID 0000.0001) selectAddFluid = /* option for mass source/sink of fluid (=0: off) */
(PID.TID 0000.0001)                       0
(PID.TID 0000.0001)     ;
(PID.TID 0000.0001) temp_addMass = /* Temp. of addMass array (UNSET=use local T)(oC)*/
(PID.TID 0000.0001)                 0.000000000000000E+00
(PID.TID 0000.0001)     ;
(PID.TID 0000.0001) salt_addMass = /* Salin. of addMass array (UNSET=use local S)(psu)*/
(PID.TID 0000.0001)                 0.000000000000000E+00
(PID.TID 0000.0001)     ;
(PID.TID 0000.0001) convertFW2Salt = /* convert F.W. Flux to Salt Flux (-1=use local S)(psu)*/
(PID.TID 0000.0001)                -1.000000000000000E+00
(PID.TID 0000.0001)     ;
(PID.TID 0000.0001) use3Dsolver = /* use 3-D pressure solver on/off flag */
(PID.TID 0000.0001)                   F
(PID.TID 0000.0001)     ;
(PID.TID 0000.0001) nonHydrostatic =  /* Non-Hydrostatic on/off flag */
(PID.TID 0000.0001)                   F
(PID.TID 0000.0001)     ;
(PID.TID 0000.0001) nh_Am2 = /* Non-Hydrostatic terms scaling factor */
(PID.TID 0000.0001)                 1.000000000000000E+00
(PID.TID 0000.0001)     ;
(PID.TID 0000.0001) implicitNHPress = /* Non-Hyd Pressure implicit factor (0-1)*/
(PID.TID 0000.0001)                 1.000000000000000E+00
(PID.TID 0000.0001)     ;
(PID.TID 0000.0001) selectNHfreeSurf = /* Non-Hyd (free-)Surface option */
(PID.TID 0000.0001)                       0
(PID.TID 0000.0001)     ;
(PID.TID 0000.0001) quasiHydrostatic = /* Quasi-Hydrostatic on/off flag */
(PID.TID 0000.0001)                   F
(PID.TID 0000.0001)     ;
(PID.TID 0000.0001) calc_wVelocity = /* vertical velocity calculation on/off flag */
(PID.TID 0000.0001)                   T
(PID.TID 0000.0001)     ;
(PID.TID 0000.0001) momStepping =  /* Momentum equation on/off flag */
(PID.TID 0000.0001)                   T
(PID.TID 0000.0001)     ;
(PID.TID 0000.0001) vectorInvariantMomentum= /* Vector-Invariant Momentum on/off */
(PID.TID 0000.0001)                   T
(PID.TID 0000.0001)     ;
(PID.TID 0000.0001) momAdvection =  /* Momentum advection on/off flag */
(PID.TID 0000.0001)                   T
(PID.TID 0000.0001)     ;
(PID.TID 0000.0001) momViscosity =  /* Momentum viscosity on/off flag */
(PID.TID 0000.0001)                   T
(PID.TID 0000.0001)     ;
(PID.TID 0000.0001) momImplVertAdv= /* Momentum implicit vert. advection on/off*/
(PID.TID 0000.0001)                   F
(PID.TID 0000.0001)     ;
(PID.TID 0000.0001) implicitViscosity = /* Implicit viscosity on/off flag */
(PID.TID 0000.0001)                   T
(PID.TID 0000.0001)     ;
(PID.TID 0000.0001) selectImplicitDrag= /* Implicit bot Drag options (0,1,2)*/
(PID.TID 0000.0001)                       0
(PID.TID 0000.0001)     0= Expl. ; 1= Impl. on provis. Vel ; 2= Fully Impl (with surf.P)
(PID.TID 0000.0001)     ;
(PID.TID 0000.0001) metricTerms =  /* metric-Terms on/off flag */
(PID.TID 0000.0001)                   T
(PID.TID 0000.0001)     ;
(PID.TID 0000.0001) useNHMTerms = /* Non-Hydrostatic Metric-Terms on/off */
(PID.TID 0000.0001)                   F
(PID.TID 0000.0001)     ;
(PID.TID 0000.0001) selectCoriMap = /* Coriolis Map options (0,1,2,3)*/
(PID.TID 0000.0001)                       2
(PID.TID 0000.0001)     0= f-Plane ; 1= Beta-Plane ; 2= Spherical ; 3= read from file
(PID.TID 0000.0001)     ;
(PID.TID 0000.0001) use3dCoriolis = /* 3-D Coriolis on/off flag */
(PID.TID 0000.0001)                   F
(PID.TID 0000.0001)     ;
(PID.TID 0000.0001) useCoriolis =  /* Coriolis on/off flag */
(PID.TID 0000.0001)                   T
(PID.TID 0000.0001)     ;
(PID.TID 0000.0001) useCDscheme =  /* CD scheme on/off flag */
(PID.TID 0000.0001)                   F
(PID.TID 0000.0001)     ;
(PID.TID 0000.0001) useEnergyConservingCoriolis= /* Flx-Form Coriolis scheme flag */
(PID.TID 0000.0001)                   F
(PID.TID 0000.0001)     ;
(PID.TID 0000.0001) useJamartWetPoints= /* Coriolis WetPoints method flag */
(PID.TID 0000.0001)                   F
(PID.TID 0000.0001)     ;
(PID.TID 0000.0001) useJamartMomAdv= /* V.I Non-linear terms Jamart flag */
(PID.TID 0000.0001)                   F
(PID.TID 0000.0001)     ;
(PID.TID 0000.0001) useAbsVorticity= /* V.I Works with f+zeta in Coriolis */
(PID.TID 0000.0001)                   F
(PID.TID 0000.0001)     ;
(PID.TID 0000.0001) selectVortScheme= /* V.I Scheme selector for Vorticity-Term */
(PID.TID 0000.0001)                       0
(PID.TID 0000.0001)    = 0 : enstrophy (Shallow-Water Eq.) conserving scheme by Sadourny, JAS 75
(PID.TID 0000.0001)    = 1 : same as 0 with modified hFac
(PID.TID 0000.0001)    = 2 : energy conserving scheme (used by Sadourny in JAS 75 paper)
(PID.TID 0000.0001)    = 3 : energy (general) and enstrophy (2D, nonDiv.) conserving scheme
(PID.TID 0000.0001)          from Sadourny (Burridge & Haseler, ECMWF Rep.4, 1977)
(PID.TID 0000.0001)     ;
(PID.TID 0000.0001) upwindVorticity= /* V.I Upwind bias vorticity flag */
(PID.TID 0000.0001)                   F
(PID.TID 0000.0001)     ;
(PID.TID 0000.0001) highOrderVorticity= /* V.I High order vort. advect. flag */
(PID.TID 0000.0001)                   T
(PID.TID 0000.0001)     ;
(PID.TID 0000.0001) upwindShear= /* V.I Upwind vertical Shear advection flag */
(PID.TID 0000.0001)                   F
(PID.TID 0000.0001)     ;
(PID.TID 0000.0001) selectKEscheme= /* V.I Kinetic Energy scheme selector */
(PID.TID 0000.0001)                       0
(PID.TID 0000.0001)     ;
(PID.TID 0000.0001) momForcing =  /* Momentum forcing on/off flag */
(PID.TID 0000.0001)                   T
(PID.TID 0000.0001)     ;
(PID.TID 0000.0001) momTidalForcing = /* Momentum Tidal forcing on/off flag */
(PID.TID 0000.0001)                   T
(PID.TID 0000.0001)     ;
(PID.TID 0000.0001) momPressureForcing =  /* Momentum pressure term on/off flag */
(PID.TID 0000.0001)                   T
(PID.TID 0000.0001)     ;
(PID.TID 0000.0001) implicitIntGravWave= /* Implicit Internal Gravity Wave flag */
(PID.TID 0000.0001)                   F
(PID.TID 0000.0001)     ;
(PID.TID 0000.0001) staggerTimeStep =    /* Stagger time stepping on/off flag */
(PID.TID 0000.0001)                   T
(PID.TID 0000.0001)     ;
(PID.TID 0000.0001) doResetHFactors = /* reset thickness factors @ each time-step */
(PID.TID 0000.0001)                   F
(PID.TID 0000.0001)     ;
(PID.TID 0000.0001) multiDimAdvection =  /* enable/disable Multi-Dim Advection */
(PID.TID 0000.0001)                   T
(PID.TID 0000.0001)     ;
(PID.TID 0000.0001) useMultiDimAdvec =   /* Multi-Dim Advection is/is-not used */
(PID.TID 0000.0001)                   T
(PID.TID 0000.0001)     ;
(PID.TID 0000.0001) implicitDiffusion = /* Implicit Diffusion on/off flag */
(PID.TID 0000.0001)                   T
(PID.TID 0000.0001)     ;
(PID.TID 0000.0001) tempStepping =  /* Temperature equation on/off flag */
(PID.TID 0000.0001)                   T
(PID.TID 0000.0001)     ;
(PID.TID 0000.0001) tempAdvection = /* Temperature advection on/off flag */
(PID.TID 0000.0001)                   T
(PID.TID 0000.0001)     ;
(PID.TID 0000.0001) tempImplVertAdv = /* Temp. implicit vert. advection on/off */
(PID.TID 0000.0001)                   F
(PID.TID 0000.0001)     ;
(PID.TID 0000.0001) tempForcing  =  /* Temperature forcing on/off flag */
(PID.TID 0000.0001)                   T
(PID.TID 0000.0001)     ;
(PID.TID 0000.0001) doThetaClimRelax = /* apply SST relaxation on/off flag */
(PID.TID 0000.0001)                   F
(PID.TID 0000.0001)     ;
(PID.TID 0000.0001) tempIsActiveTr = /* Temp. is a dynamically Active Tracer */
(PID.TID 0000.0001)                   T
(PID.TID 0000.0001)     ;
(PID.TID 0000.0001) saltStepping =  /* Salinity equation on/off flag */
(PID.TID 0000.0001)                   T
(PID.TID 0000.0001)     ;
(PID.TID 0000.0001) saltAdvection = /* Salinity advection on/off flag */
(PID.TID 0000.0001)                   T
(PID.TID 0000.0001)     ;
(PID.TID 0000.0001) saltImplVertAdv = /* Sali. implicit vert. advection on/off */
(PID.TID 0000.0001)                   F
(PID.TID 0000.0001)     ;
(PID.TID 0000.0001) saltForcing  =  /* Salinity forcing on/off flag */
(PID.TID 0000.0001)                   T
(PID.TID 0000.0001)     ;
(PID.TID 0000.0001) doSaltClimRelax = /* apply SSS relaxation on/off flag */
(PID.TID 0000.0001)                   F
(PID.TID 0000.0001)     ;
(PID.TID 0000.0001) saltIsActiveTr = /* Salt  is a dynamically Active Tracer */
(PID.TID 0000.0001)                   T
(PID.TID 0000.0001)     ;
(PID.TID 0000.0001)  readBinaryPrec = /* Precision used for reading binary files */
(PID.TID 0000.0001)                      32
(PID.TID 0000.0001)     ;
(PID.TID 0000.0001) writeBinaryPrec = /* Precision used for writing binary files */
(PID.TID 0000.0001)                      32
(PID.TID 0000.0001)     ;
(PID.TID 0000.0001)  rwSuffixType =   /* select format of mds file suffix */
(PID.TID 0000.0001)                       0
(PID.TID 0000.0001)    = 0 : myIter (I10.10) ;   = 1 : 100*myTime (100th sec) ;
(PID.TID 0000.0001)    = 2 : myTime (seconds);   = 3 : myTime/360 (10th of hr);
(PID.TID 0000.0001)    = 4 : myTime/3600 (hours)
(PID.TID 0000.0001)     ;
(PID.TID 0000.0001)  globalFiles = /* write "global" (=not per tile) files */
(PID.TID 0000.0001)                   T
(PID.TID 0000.0001)     ;
(PID.TID 0000.0001)  useSingleCpuIO = /* only master MPI process does I/O */
(PID.TID 0000.0001)                   T
(PID.TID 0000.0001)     ;
(PID.TID 0000.0001)  useSingleCpuInput = /* only master process reads input */
(PID.TID 0000.0001)                   T
(PID.TID 0000.0001)     ;
(PID.TID 0000.0001) /* debLev[*]  : level of debug & auxiliary message printing */
(PID.TID 0000.0001) debLevZero =  0 ; /* level of disabled aux. msg printing */
(PID.TID 0000.0001)    debLevA =  1 ; /* level of minimum  aux. msg printing */
(PID.TID 0000.0001)    debLevB =  2 ; /* level of low aux. print (report read-file opening)*/
(PID.TID 0000.0001)    debLevC =  3 ; /* level of moderate debug prt (most pkgs debug msg) */
(PID.TID 0000.0001)    debLevD =  4 ; /* level of enhanced debug prt (add DEBUG_STATS prt) */
(PID.TID 0000.0001)    debLevE =  5 ; /* level of extensive debug printing */
(PID.TID 0000.0001) debugLevel =  /* select debug printing level */
(PID.TID 0000.0001)                       2
(PID.TID 0000.0001)     ;
(PID.TID 0000.0001)  plotLevel =  /* select PLOT_FIELD printing level */
(PID.TID 0000.0001)                       2
(PID.TID 0000.0001)     ;
(PID.TID 0000.0001) //
(PID.TID 0000.0001) // Elliptic solver(s) paramters ( PARM02 in namelist )
(PID.TID 0000.0001) //
(PID.TID 0000.0001) cg2dMaxIters =   /* Upper limit on 2d con. grad iterations  */
(PID.TID 0000.0001)                    1000
(PID.TID 0000.0001)     ;
(PID.TID 0000.0001) cg2dChkResFreq =   /* 2d con. grad convergence test frequency */
(PID.TID 0000.0001)                       1
(PID.TID 0000.0001)     ;
(PID.TID 0000.0001) cg2dUseMinResSol= /* use cg2d last-iter(=0) / min-resid.(=1) solution */
(PID.TID 0000.0001)                       0
(PID.TID 0000.0001)     ;
(PID.TID 0000.0001) cg2dTargetResidual =   /* 2d con. grad target residual  */
(PID.TID 0000.0001)                 1.000000000000000E-07
(PID.TID 0000.0001)     ;
(PID.TID 0000.0001) cg2dTargetResWunit =   /* CG2d target residual [W units] */
(PID.TID 0000.0001)                 1.000000000000000E-18
(PID.TID 0000.0001)     ;
(PID.TID 0000.0001) cg2dPreCondFreq =   /* Freq. for updating cg2d preconditioner */
(PID.TID 0000.0001)                       1
(PID.TID 0000.0001)     ;
(PID.TID 0000.0001) useSRCGSolver =  /* use single reduction CG solver(s) */
(PID.TID 0000.0001)                   F
(PID.TID 0000.0001)     ;
(PID.TID 0000.0001) printResidualFreq = /* Freq. for printing CG residual */
(PID.TID 0000.0001)                       0
(PID.TID 0000.0001)     ;
(PID.TID 0000.0001) //
(PID.TID 0000.0001) // Time stepping paramters ( PARM03 in namelist )
(PID.TID 0000.0001) //
(PID.TID 0000.0001) deltaTMom =   /* Momentum equation timestep ( s ) */
(PID.TID 0000.0001)                 2.400000000000000E+02
(PID.TID 0000.0001)     ;
(PID.TID 0000.0001) deltaTFreeSurf = /* FreeSurface equation timestep ( s ) */
(PID.TID 0000.0001)                 2.400000000000000E+02
(PID.TID 0000.0001)     ;
(PID.TID 0000.0001) dTtracerLev =  /* Tracer equation timestep ( s ) */
(PID.TID 0000.0001)   100 @  2.400000000000000E+02              /* K =  1:100 */
(PID.TID 0000.0001)     ;
(PID.TID 0000.0001) deltaTClock  =   /* Model clock timestep ( s ) */
(PID.TID 0000.0001)                 2.400000000000000E+02
(PID.TID 0000.0001)     ;
(PID.TID 0000.0001) cAdjFreq =   /* Convective adjustment interval ( s ) */
(PID.TID 0000.0001)                 0.000000000000000E+00
(PID.TID 0000.0001)     ;
(PID.TID 0000.0001) momForcingOutAB = /* =1: take Momentum Forcing out of Adams-Bash. stepping */
(PID.TID 0000.0001)                       1
(PID.TID 0000.0001)     ;
(PID.TID 0000.0001) tracForcingOutAB = /* =1: take T,S,pTr Forcing out of Adams-Bash. stepping */
(PID.TID 0000.0001)                       1
(PID.TID 0000.0001)     ;
(PID.TID 0000.0001) momDissip_In_AB = /* put Dissipation Tendency in Adams-Bash. stepping */
(PID.TID 0000.0001)                   F
(PID.TID 0000.0001)     ;
(PID.TID 0000.0001) doAB_onGtGs = /* apply AB on Tendencies (rather than on T,S)*/
(PID.TID 0000.0001)                   T
(PID.TID 0000.0001)     ;
(PID.TID 0000.0001) abEps =   /* Adams-Bashforth-2 stabilizing weight */
(PID.TID 0000.0001)                 1.000000000000000E-01
(PID.TID 0000.0001)     ;
(PID.TID 0000.0001) applyExchUV_early = /* Apply EXCH to U,V earlier in time-step */
(PID.TID 0000.0001)                   F
(PID.TID 0000.0001)     ;
(PID.TID 0000.0001) pickupStrictlyMatch= /* stop if pickup do not strictly match */
(PID.TID 0000.0001)                   F
(PID.TID 0000.0001)     ;
(PID.TID 0000.0001) nIter0   =   /* Run starting timestep number */
(PID.TID 0000.0001)                       0
(PID.TID 0000.0001)     ;
(PID.TID 0000.0001) nTimeSteps = /* Number of timesteps */
(PID.TID 0000.0001)                      15
(PID.TID 0000.0001)     ;
(PID.TID 0000.0001) nEndIter =   /* Run ending timestep number */
(PID.TID 0000.0001)                      15
(PID.TID 0000.0001)     ;
(PID.TID 0000.0001) baseTime =   /* Model base time ( s ) */
(PID.TID 0000.0001)                 0.000000000000000E+00
(PID.TID 0000.0001)     ;
(PID.TID 0000.0001) startTime =  /* Run start time ( s ) */
(PID.TID 0000.0001)                 0.000000000000000E+00
(PID.TID 0000.0001)     ;
(PID.TID 0000.0001) endTime  =   /* Integration ending time ( s ) */
(PID.TID 0000.0001)                 3.600000000000000E+03
(PID.TID 0000.0001)     ;
(PID.TID 0000.0001) pChkPtFreq = /* Permanent restart/pickup file interval ( s ) */
(PID.TID 0000.0001)                 8.640000000000000E+05
(PID.TID 0000.0001)     ;
(PID.TID 0000.0001) chkPtFreq  = /* Rolling restart/pickup file interval ( s ) */
(PID.TID 0000.0001)                 0.000000000000000E+00
(PID.TID 0000.0001)     ;
(PID.TID 0000.0001) pickup_write_mdsio =   /* Model IO flag. */
(PID.TID 0000.0001)                   T
(PID.TID 0000.0001)     ;
(PID.TID 0000.0001) pickup_read_mdsio =   /* Model IO flag. */
(PID.TID 0000.0001)                   T
(PID.TID 0000.0001)     ;
(PID.TID 0000.0001) writePickupAtEnd =   /* Model IO flag. */
(PID.TID 0000.0001)                   T
(PID.TID 0000.0001)     ;
(PID.TID 0000.0001) dumpFreq =   /* Model state write out interval ( s ). */
(PID.TID 0000.0001)                 0.000000000000000E+00
(PID.TID 0000.0001)     ;
(PID.TID 0000.0001) dumpInitAndLast= /* write out Initial & Last iter. model state */
(PID.TID 0000.0001)                   F
(PID.TID 0000.0001)     ;
(PID.TID 0000.0001) snapshot_mdsio =   /* Model IO flag. */
(PID.TID 0000.0001)                   T
(PID.TID 0000.0001)     ;
(PID.TID 0000.0001) monitorFreq =   /* Monitor output interval ( s ). */
(PID.TID 0000.0001)                 2.400000000000000E+02
(PID.TID 0000.0001)     ;
(PID.TID 0000.0001) monitorSelect = /* select group of variables to monitor */
(PID.TID 0000.0001)                       3
(PID.TID 0000.0001)     ;
(PID.TID 0000.0001) monitor_stdio =   /* Model IO flag. */
(PID.TID 0000.0001)                   T
(PID.TID 0000.0001)     ;
(PID.TID 0000.0001) externForcingPeriod =   /* forcing period (s) */
(PID.TID 0000.0001)                 0.000000000000000E+00
(PID.TID 0000.0001)     ;
(PID.TID 0000.0001) externForcingCycle =   /* period of the cyle (s). */
(PID.TID 0000.0001)                 0.000000000000000E+00
(PID.TID 0000.0001)     ;
(PID.TID 0000.0001) tauThetaClimRelax =   /* relaxation time scale (s) */
(PID.TID 0000.0001)                 0.000000000000000E+00
(PID.TID 0000.0001)     ;
(PID.TID 0000.0001) tauSaltClimRelax =   /* relaxation time scale (s) */
(PID.TID 0000.0001)                 0.000000000000000E+00
(PID.TID 0000.0001)     ;
(PID.TID 0000.0001) latBandClimRelax =   /* max. Lat. where relaxation */
(PID.TID 0000.0001)                 1.800000000000000E+02
(PID.TID 0000.0001)     ;
(PID.TID 0000.0001) //
(PID.TID 0000.0001) // Gridding paramters ( PARM04 in namelist )
(PID.TID 0000.0001) //
(PID.TID 0000.0001) usingCartesianGrid = /* Cartesian coordinates flag ( True/False ) */
(PID.TID 0000.0001)                   F
(PID.TID 0000.0001)     ;
(PID.TID 0000.0001) usingCylindricalGrid = /* Cylindrical coordinates flag ( True/False ) */
(PID.TID 0000.0001)                   F
(PID.TID 0000.0001)     ;
(PID.TID 0000.0001) usingSphericalPolarGrid = /* Spherical coordinates flag ( True/False ) */
(PID.TID 0000.0001)                   T
(PID.TID 0000.0001)     ;
(PID.TID 0000.0001) usingCurvilinearGrid = /* Curvilinear coordinates flag ( True/False ) */
(PID.TID 0000.0001)                   F
(PID.TID 0000.0001)     ;
(PID.TID 0000.0001) useMin4hFacEdges = /* set hFacW,S as minimum of adjacent hFacC factor */
(PID.TID 0000.0001)                   F
(PID.TID 0000.0001)     ;
(PID.TID 0000.0001) interViscAr_pCell = /* account for partial-cell in interior vert. viscosity */
(PID.TID 0000.0001)                   F
(PID.TID 0000.0001)     ;
(PID.TID 0000.0001) interDiffKr_pCell = /* account for partial-cell in interior vert. diffusion */
(PID.TID 0000.0001)                   F
(PID.TID 0000.0001)     ;
(PID.TID 0000.0001) pCellMix_select = /* option to enhance mixing near surface & bottom */
(PID.TID 0000.0001)                       0
(PID.TID 0000.0001)     ;
(PID.TID 0000.0001) selectSigmaCoord = /* Hybrid-Sigma Vert. Coordinate option */
(PID.TID 0000.0001)                       0
(PID.TID 0000.0001)     ;
(PID.TID 0000.0001) rSigmaBnd = /* r/sigma transition ( units of r ==  m ) */
(PID.TID 0000.0001)                 1.234567000000000E+05
(PID.TID 0000.0001)     ;
(PID.TID 0000.0001) rkSign =   /* index orientation relative to vertical coordinate */
(PID.TID 0000.0001)                -1.000000000000000E+00
(PID.TID 0000.0001)     ;
(PID.TID 0000.0001) gravitySign = /* gravity orientation relative to vertical coordinate */
(PID.TID 0000.0001)                -1.000000000000000E+00
(PID.TID 0000.0001)     ;
(PID.TID 0000.0001) seaLev_Z =  /* reference height of sea-level [m] */
(PID.TID 0000.0001)                 0.000000000000000E+00
(PID.TID 0000.0001)     ;
(PID.TID 0000.0001) top_Pres =  /* reference pressure at the top [Pa] */
(PID.TID 0000.0001)                 0.000000000000000E+00
(PID.TID 0000.0001)     ;
(PID.TID 0000.0001) mass2rUnit = /* convert mass per unit area [kg/m2] to r-units [m] */
(PID.TID 0000.0001)                 9.718172983479105E-04
(PID.TID 0000.0001)     ;
(PID.TID 0000.0001) rUnit2mass = /* convert r-units [m] to mass per unit area [kg/m2] */
(PID.TID 0000.0001)                 1.029000000000000E+03
(PID.TID 0000.0001)     ;
(PID.TID 0000.0001) drC =   /* C spacing ( units of r ) */
(PID.TID 0000.0001)                 2.500000000000000E+00,      /* K =  1 */
(PID.TID 0000.0001)    14 @  5.000000000000000E+00,             /* K =  2: 15 */
(PID.TID 0000.0001)                 5.005000000000000E+00,      /* K = 16 */
(PID.TID 0000.0001)                 5.010000000000000E+00,      /* K = 17 */
(PID.TID 0000.0001)                 5.015000000000000E+00,      /* K = 18 */
(PID.TID 0000.0001)                 5.029999999999999E+00,      /* K = 19 */
(PID.TID 0000.0001)                 5.055000000000000E+00,      /* K = 20 */
(PID.TID 0000.0001)                 5.095000000000001E+00,      /* K = 21 */
(PID.TID 0000.0001)                 5.160000000000000E+00,      /* K = 22 */
(PID.TID 0000.0001)                 5.255000000000000E+00,      /* K = 23 */
(PID.TID 0000.0001)                 5.400000000000000E+00,      /* K = 24 */
(PID.TID 0000.0001)                 5.605000000000000E+00,      /* K = 25 */
(PID.TID 0000.0001)                 5.880000000000000E+00,      /* K = 26 */
(PID.TID 0000.0001)                 6.245000000000000E+00,      /* K = 27 */
(PID.TID 0000.0001)                 6.710000000000000E+00,      /* K = 28 */
(PID.TID 0000.0001)                 7.295000000000000E+00,      /* K = 29 */
(PID.TID 0000.0001)                 8.020000000000000E+00,      /* K = 30 */
(PID.TID 0000.0001)                 8.890000000000001E+00,      /* K = 31 */
(PID.TID 0000.0001)                 9.910000000000000E+00,      /* K = 32 */
(PID.TID 0000.0001)                 1.109000000000000E+01,      /* K = 33 */
(PID.TID 0000.0001)                 1.242500000000000E+01,      /* K = 34 */
(PID.TID 0000.0001)                 1.391500000000000E+01,      /* K = 35 */
(PID.TID 0000.0001)                 1.555000000000000E+01,      /* K = 36 */
(PID.TID 0000.0001)                 1.732000000000000E+01,      /* K = 37 */
(PID.TID 0000.0001)                 1.921000000000000E+01,      /* K = 38 */
(PID.TID 0000.0001)                 2.119500000000000E+01,      /* K = 39 */
(PID.TID 0000.0001)                 2.325000000000000E+01,      /* K = 40 */
(PID.TID 0000.0001)                 2.536000000000000E+01,      /* K = 41 */
(PID.TID 0000.0001)                 2.750000000000000E+01,      /* K = 42 */
(PID.TID 0000.0001)                 2.964000000000000E+01,      /* K = 43 */
(PID.TID 0000.0001)                 3.175000000000000E+01,      /* K = 44 */
(PID.TID 0000.0001)                 3.380500000000000E+01,      /* K = 45 */
(PID.TID 0000.0001)                 3.579000000000000E+01,      /* K = 46 */
(PID.TID 0000.0001)                 3.768000000000000E+01,      /* K = 47 */
(PID.TID 0000.0001)                 3.945000000000000E+01,      /* K = 48 */
(PID.TID 0000.0001)                 4.108499999999999E+01,      /* K = 49 */
(PID.TID 0000.0001)                 4.257500000000000E+01,      /* K = 50 */
(PID.TID 0000.0001)                 4.391000000000000E+01,      /* K = 51 */
(PID.TID 0000.0001)                 4.509000000000000E+01,      /* K = 52 */
(PID.TID 0000.0001)                 4.611000000000000E+01,      /* K = 53 */
(PID.TID 0000.0001)                 4.698000000000000E+01,      /* K = 54 */
(PID.TID 0000.0001)                 4.770500000000000E+01,      /* K = 55 */
(PID.TID 0000.0001)                 4.829000000000000E+01,      /* K = 56 */
(PID.TID 0000.0001)                 4.875500000000000E+01,      /* K = 57 */
(PID.TID 0000.0001)                 4.912500000000000E+01,      /* K = 58 */
(PID.TID 0000.0001)                 4.941000000000000E+01,      /* K = 59 */
(PID.TID 0000.0001)                 4.962500000000000E+01,      /* K = 60 */
(PID.TID 0000.0001)                 4.981000000000000E+01,      /* K = 61 */
(PID.TID 0000.0001)                 5.000500000000000E+01,      /* K = 62 */
(PID.TID 0000.0001)                 5.026000000000000E+01,      /* K = 63 */
(PID.TID 0000.0001)                 5.066500000000000E+01,      /* K = 64 */
(PID.TID 0000.0001)                 5.130500000000000E+01,      /* K = 65 */
(PID.TID 0000.0001)                 5.228000000000000E+01,      /* K = 66 */
(PID.TID 0000.0001)                 5.370500000000000E+01,      /* K = 67 */
(PID.TID 0000.0001)                 5.566500000000000E+01,      /* K = 68 */
(PID.TID 0000.0001)                 5.823000000000000E+01,      /* K = 69 */
(PID.TID 0000.0001)                 6.141500000000000E+01,      /* K = 70 */
(PID.TID 0000.0001)                 6.521000000000001E+01,      /* K = 71 */
(PID.TID 0000.0001)                 6.954500000000000E+01,      /* K = 72 */
(PID.TID 0000.0001)                 7.433000000000000E+01,      /* K = 73 */
(PID.TID 0000.0001)                 7.947000000000000E+01,      /* K = 74 */
(PID.TID 0000.0001)                 8.486000000000000E+01,      /* K = 75 */
(PID.TID 0000.0001)                 9.041499999999999E+01,      /* K = 76 */
(PID.TID 0000.0001)                 9.606500000000000E+01,      /* K = 77 */
(PID.TID 0000.0001)                 1.017750000000000E+02,      /* K = 78 */
(PID.TID 0000.0001)                 1.075100000000000E+02,      /* K = 79 */
(PID.TID 0000.0001)                 1.132500000000000E+02,      /* K = 80 */
(PID.TID 0000.0001)                 1.189950000000000E+02,      /* K = 81 */
(PID.TID 0000.0001)                 1.247500000000000E+02,      /* K = 82 */
(PID.TID 0000.0001)                 1.305050000000000E+02,      /* K = 83 */
(PID.TID 0000.0001)                 1.362500000000000E+02,      /* K = 84 */
(PID.TID 0000.0001)                 1.419950000000000E+02,      /* K = 85 */
(PID.TID 0000.0001)                 1.477500000000000E+02,      /* K = 86 */
(PID.TID 0000.0001)                 1.535050000000000E+02,      /* K = 87 */
(PID.TID 0000.0001)                 1.592500000000000E+02,      /* K = 88 */
(PID.TID 0000.0001)                 1.649950000000000E+02,      /* K = 89 */
(PID.TID 0000.0001)                 1.707500000000000E+02,      /* K = 90 */
(PID.TID 0000.0001)                 1.765050000000000E+02,      /* K = 91 */
(PID.TID 0000.0001)                 1.822500000000000E+02,      /* K = 92 */
(PID.TID 0000.0001)                 1.879950000000000E+02,      /* K = 93 */
(PID.TID 0000.0001)                 1.937500000000000E+02,      /* K = 94 */
(PID.TID 0000.0001)                 1.995050000000000E+02,      /* K = 95 */
(PID.TID 0000.0001)                 2.052500000000000E+02,      /* K = 96 */
(PID.TID 0000.0001)                 2.109950000000000E+02,      /* K = 97 */
(PID.TID 0000.0001)                 2.167500000000000E+02,      /* K = 98 */
(PID.TID 0000.0001)                 2.225050000000000E+02,      /* K = 99 */
(PID.TID 0000.0001)                 2.282500000000000E+02,      /* K =100 */
(PID.TID 0000.0001)                 1.155600000000000E+02       /* K =101 */
(PID.TID 0000.0001)     ;
(PID.TID 0000.0001) drF =   /* W spacing ( units of r ) */
(PID.TID 0000.0001)    15 @  5.000000000000000E+00,             /* K =  1: 15 */
(PID.TID 0000.0001)     2 @  5.010000000000000E+00,             /* K = 16: 17 */
(PID.TID 0000.0001)                 5.020000000000000E+00,      /* K = 18 */
(PID.TID 0000.0001)                 5.040000000000000E+00,      /* K = 19 */
(PID.TID 0000.0001)                 5.070000000000000E+00,      /* K = 20 */
(PID.TID 0000.0001)                 5.120000000000000E+00,      /* K = 21 */
(PID.TID 0000.0001)                 5.200000000000000E+00,      /* K = 22 */
(PID.TID 0000.0001)                 5.310000000000000E+00,      /* K = 23 */
(PID.TID 0000.0001)                 5.490000000000000E+00,      /* K = 24 */
(PID.TID 0000.0001)                 5.720000000000000E+00,      /* K = 25 */
(PID.TID 0000.0001)                 6.040000000000000E+00,      /* K = 26 */
(PID.TID 0000.0001)                 6.450000000000000E+00,      /* K = 27 */
(PID.TID 0000.0001)                 6.970000000000000E+00,      /* K = 28 */
(PID.TID 0000.0001)                 7.620000000000000E+00,      /* K = 29 */
(PID.TID 0000.0001)                 8.420000000000000E+00,      /* K = 30 */
(PID.TID 0000.0001)                 9.359999999999999E+00,      /* K = 31 */
(PID.TID 0000.0001)                 1.046000000000000E+01,      /* K = 32 */
(PID.TID 0000.0001)                 1.172000000000000E+01,      /* K = 33 */
(PID.TID 0000.0001)                 1.313000000000000E+01,      /* K = 34 */
(PID.TID 0000.0001)                 1.470000000000000E+01,      /* K = 35 */
(PID.TID 0000.0001)                 1.640000000000000E+01,      /* K = 36 */
(PID.TID 0000.0001)                 1.824000000000000E+01,      /* K = 37 */
(PID.TID 0000.0001)                 2.018000000000000E+01,      /* K = 38 */
(PID.TID 0000.0001)                 2.221000000000000E+01,      /* K = 39 */
(PID.TID 0000.0001)                 2.429000000000000E+01,      /* K = 40 */
(PID.TID 0000.0001)                 2.643000000000000E+01,      /* K = 41 */
(PID.TID 0000.0001)                 2.857000000000000E+01,      /* K = 42 */
(PID.TID 0000.0001)                 3.071000000000000E+01,      /* K = 43 */
(PID.TID 0000.0001)                 3.279000000000000E+01,      /* K = 44 */
(PID.TID 0000.0001)                 3.482000000000000E+01,      /* K = 45 */
(PID.TID 0000.0001)                 3.676000000000000E+01,      /* K = 46 */
(PID.TID 0000.0001)                 3.860000000000000E+01,      /* K = 47 */
(PID.TID 0000.0001)                 4.030000000000000E+01,      /* K = 48 */
(PID.TID 0000.0001)                 4.187000000000000E+01,      /* K = 49 */
(PID.TID 0000.0001)                 4.328000000000000E+01,      /* K = 50 */
(PID.TID 0000.0001)                 4.454000000000000E+01,      /* K = 51 */
(PID.TID 0000.0001)                 4.564000000000000E+01,      /* K = 52 */
(PID.TID 0000.0001)                 4.658000000000000E+01,      /* K = 53 */
(PID.TID 0000.0001)                 4.738000000000000E+01,      /* K = 54 */
(PID.TID 0000.0001)                 4.803000000000000E+01,      /* K = 55 */
(PID.TID 0000.0001)                 4.855000000000000E+01,      /* K = 56 */
(PID.TID 0000.0001)                 4.896000000000000E+01,      /* K = 57 */
(PID.TID 0000.0001)                 4.929000000000000E+01,      /* K = 58 */
(PID.TID 0000.0001)                 4.953000000000000E+01,      /* K = 59 */
(PID.TID 0000.0001)                 4.972000000000000E+01,      /* K = 60 */
(PID.TID 0000.0001)                 4.990000000000000E+01,      /* K = 61 */
(PID.TID 0000.0001)                 5.011000000000000E+01,      /* K = 62 */
(PID.TID 0000.0001)                 5.041000000000000E+01,      /* K = 63 */
(PID.TID 0000.0001)                 5.092000000000000E+01,      /* K = 64 */
(PID.TID 0000.0001)                 5.169000000000000E+01,      /* K = 65 */
(PID.TID 0000.0001)                 5.287000000000000E+01,      /* K = 66 */
(PID.TID 0000.0001)                 5.454000000000000E+01,      /* K = 67 */
(PID.TID 0000.0001)                 5.679000000000000E+01,      /* K = 68 */
(PID.TID 0000.0001)                 5.967000000000000E+01,      /* K = 69 */
(PID.TID 0000.0001)                 6.316000000000000E+01,      /* K = 70 */
(PID.TID 0000.0001)                 6.726000000000001E+01,      /* K = 71 */
(PID.TID 0000.0001)                 7.183000000000000E+01,      /* K = 72 */
(PID.TID 0000.0001)                 7.683000000000000E+01,      /* K = 73 */
(PID.TID 0000.0001)                 8.211000000000000E+01,      /* K = 74 */
(PID.TID 0000.0001)                 8.761000000000000E+01,      /* K = 75 */
(PID.TID 0000.0001)                 9.322000000000000E+01,      /* K = 76 */
(PID.TID 0000.0001)                 9.891000000000000E+01,      /* K = 77 */
(PID.TID 0000.0001)                 1.046400000000000E+02,      /* K = 78 */
(PID.TID 0000.0001)                 1.103800000000000E+02,      /* K = 79 */
(PID.TID 0000.0001)                 1.161200000000000E+02,      /* K = 80 */
(PID.TID 0000.0001)                 1.218700000000000E+02,      /* K = 81 */
(PID.TID 0000.0001)                 1.276300000000000E+02,      /* K = 82 */
(PID.TID 0000.0001)                 1.333800000000000E+02,      /* K = 83 */
(PID.TID 0000.0001)                 1.391200000000000E+02,      /* K = 84 */
(PID.TID 0000.0001)                 1.448700000000000E+02,      /* K = 85 */
(PID.TID 0000.0001)                 1.506300000000000E+02,      /* K = 86 */
(PID.TID 0000.0001)                 1.563800000000000E+02,      /* K = 87 */
(PID.TID 0000.0001)                 1.621200000000000E+02,      /* K = 88 */
(PID.TID 0000.0001)                 1.678700000000000E+02,      /* K = 89 */
(PID.TID 0000.0001)                 1.736300000000000E+02,      /* K = 90 */
(PID.TID 0000.0001)                 1.793800000000000E+02,      /* K = 91 */
(PID.TID 0000.0001)                 1.851200000000000E+02,      /* K = 92 */
(PID.TID 0000.0001)                 1.908700000000000E+02,      /* K = 93 */
(PID.TID 0000.0001)                 1.966300000000000E+02,      /* K = 94 */
(PID.TID 0000.0001)                 2.023800000000000E+02,      /* K = 95 */
(PID.TID 0000.0001)                 2.081200000000000E+02,      /* K = 96 */
(PID.TID 0000.0001)                 2.138700000000000E+02,      /* K = 97 */
(PID.TID 0000.0001)                 2.196300000000000E+02,      /* K = 98 */
(PID.TID 0000.0001)                 2.253800000000000E+02,      /* K = 99 */
(PID.TID 0000.0001)                 2.311200000000000E+02       /* K =100 */
(PID.TID 0000.0001)     ;
(PID.TID 0000.0001) delX = /* U spacing ( m - cartesian, degrees - spherical ) */
(PID.TID 0000.0001)  2160 @  4.166666666666700E-02              /* I =   1:2160 */
(PID.TID 0000.0001)     ;
(PID.TID 0000.0001) delY = /* V spacing ( m - cartesian, degrees - spherical ) */
(PID.TID 0000.0001)                 3.423118591308594E-02,      /* J =  1 */
(PID.TID 0000.0001)                 3.422164916992188E-02,      /* J =  2 */
(PID.TID 0000.0001)                 3.421211242675781E-02,      /* J =  3 */
(PID.TID 0000.0001)      . . .
(PID.TID 0000.0001)                 3.283882141113281E-02,      /* J =133 */
(PID.TID 0000.0001)                 3.282928466796875E-02,      /* J =134 */
(PID.TID 0000.0001)                 3.281784057617188E-02,      /* J =135 */
(PID.TID 0000.0001)                 3.280639648437500E-02,      /* J =136 */
(PID.TID 0000.0001)                 3.279495239257812E-02,      /* J =137 */
(PID.TID 0000.0001)                 3.278350830078125E-02,      /* J =138 */
(PID.TID 0000.0001)      . . .
(PID.TID 0000.0001)                 3.132247924804688E-02,      /* J =268 */
(PID.TID 0000.0001)                 3.130722045898438E-02,      /* J =269 */
(PID.TID 0000.0001)                 3.129959106445312E-02,      /* J =270 */
(PID.TID 0000.0001)                 3.128814697265625E-02,      /* J =271 */
(PID.TID 0000.0001)                 3.127288818359375E-02,      /* J =272 */
(PID.TID 0000.0001)                 3.126525878906250E-02,      /* J =273 */
(PID.TID 0000.0001)      . . .
(PID.TID 0000.0001)                 2.974700927734375E-02,      /* J =403 */
(PID.TID 0000.0001)                 2.973175048828125E-02,      /* J =404 */
(PID.TID 0000.0001)                 2.971649169921875E-02,      /* J =405 */
(PID.TID 0000.0001)                 2.970886230468750E-02,      /* J =406 */
(PID.TID 0000.0001)                 2.969741821289062E-02,      /* J =407 */
(PID.TID 0000.0001)                 2.968597412109375E-02,      /* J =408 */
(PID.TID 0000.0001)      . . .
(PID.TID 0000.0001)                 2.813720703125000E-02,      /* J =538 */
(PID.TID 0000.0001)                 2.812576293945312E-02,      /* J =539 */
(PID.TID 0000.0001)                 2.811431884765625E-02       /* J =540 */
(PID.TID 0000.0001)     ;
(PID.TID 0000.0001) xgOrigin = /* X-axis origin of West  edge (cartesian: m, lat-lon: deg) */
(PID.TID 0000.0001)                -8.300000000000000E+01
(PID.TID 0000.0001)     ;
(PID.TID 0000.0001) ygOrigin = /* Y-axis origin of South edge (cartesian: m, lat-lon: deg) */
(PID.TID 0000.0001)                 2.665005493164062E+01
(PID.TID 0000.0001)     ;
(PID.TID 0000.0001) rSphere =  /* Radius ( ignored - cartesian, m - spherical ) */
(PID.TID 0000.0001)                 6.370000000000000E+06
(PID.TID 0000.0001)     ;
(PID.TID 0000.0001) deepAtmosphere = /* Deep/Shallow Atmosphere flag (True/False) */
(PID.TID 0000.0001)                   F
(PID.TID 0000.0001)     ;
(PID.TID 0000.0001) xC =  /* xC(:,1,:,1) : P-point X coord ( deg. or m if cartesian) */
(PID.TID 0000.0001)                -8.297916666666666E+01,      /* I =  1 */
(PID.TID 0000.0001)                -8.293750000000000E+01,      /* I =  2 */
(PID.TID 0000.0001)                -8.289583333333331E+01,      /* I =  3 */
(PID.TID 0000.0001)      . . .
(PID.TID 0000.0001)                -8.214583333333323E+01,      /* I = 21 */
(PID.TID 0000.0001)                -8.210416666666657E+01,      /* I = 22 */
(PID.TID 0000.0001)                -8.206249999999989E+01,      /* I = 23 */
(PID.TID 0000.0001)                -8.202083333333323E+01,      /* I = 24 */
(PID.TID 0000.0001)                -8.197916666666654E+01,      /* I = 25 */
(PID.TID 0000.0001)                -8.193749999999989E+01,      /* I = 26 */
(PID.TID 0000.0001)      . . .
(PID.TID 0000.0001)                -8.122916666666646E+01,      /* I = 43 */
(PID.TID 0000.0001)                -8.118749999999980E+01,      /* I = 44 */
(PID.TID 0000.0001)                -8.114583333333312E+01,      /* I = 45 */
(PID.TID 0000.0001)                -8.110416666666646E+01,      /* I = 46 */
(PID.TID 0000.0001)                -8.106249999999977E+01,      /* I = 47 */
(PID.TID 0000.0001)                -8.102083333333312E+01,      /* I = 48 */
(PID.TID 0000.0001)      . . .
(PID.TID 0000.0001)                -8.031249999999969E+01,      /* I = 65 */
(PID.TID 0000.0001)                -8.027083333333303E+01,      /* I = 66 */
(PID.TID 0000.0001)                -8.022916666666634E+01,      /* I = 67 */
(PID.TID 0000.0001)                -8.018749999999969E+01,      /* I = 68 */
(PID.TID 0000.0001)                -8.014583333333300E+01,      /* I = 69 */
(PID.TID 0000.0001)                -8.010416666666634E+01,      /* I = 70 */
(PID.TID 0000.0001)      . . .
(PID.TID 0000.0001)                -7.935416666666626E+01,      /* I = 88 */
(PID.TID 0000.0001)                -7.931249999999957E+01,      /* I = 89 */
(PID.TID 0000.0001)                -7.927083333333292E+01       /* I = 90 */
(PID.TID 0000.0001)     ;
(PID.TID 0000.0001) yC =  /* yC(1,:,1,:) : P-point Y coord ( deg. or m if cartesian) */
(PID.TID 0000.0001)                 2.666717052459717E+01,      /* J =  1 */
(PID.TID 0000.0001)                 2.670139694213867E+01,      /* J =  2 */
(PID.TID 0000.0001)                 2.673561382293701E+01,      /* J =  3 */
(PID.TID 0000.0001)      . . .
(PID.TID 0000.0001)                 2.734977054595947E+01,      /* J = 21 */
(PID.TID 0000.0001)                 2.738379383087158E+01,      /* J = 22 */
(PID.TID 0000.0001)                 2.741780662536621E+01,      /* J = 23 */
(PID.TID 0000.0001)                 2.745180892944336E+01,      /* J = 24 */
(PID.TID 0000.0001)                 2.748580074310303E+01,      /* J = 25 */
(PID.TID 0000.0001)                 2.751978206634521E+01,      /* J = 26 */
(PID.TID 0000.0001)      . . .
(PID.TID 0000.0001)                 2.809589099884033E+01,      /* J = 43 */
(PID.TID 0000.0001)                 2.812968635559082E+01,      /* J = 44 */
(PID.TID 0000.0001)                 2.816347122192383E+01,      /* J = 45 */
(PID.TID 0000.0001)                 2.819724559783936E+01,      /* J = 46 */
(PID.TID 0000.0001)                 2.823101043701172E+01,      /* J = 47 */
(PID.TID 0000.0001)                 2.826476478576660E+01,      /* J = 48 */
(PID.TID 0000.0001)      . . .
(PID.TID 0000.0001)                 2.883697605133057E+01,      /* J = 65 */
(PID.TID 0000.0001)                 2.887054157257080E+01,      /* J = 66 */
(PID.TID 0000.0001)                 2.890409564971924E+01,      /* J = 67 */
(PID.TID 0000.0001)                 2.893763923645020E+01,      /* J = 68 */
(PID.TID 0000.0001)                 2.897117233276367E+01,      /* J = 69 */
(PID.TID 0000.0001)                 2.900469493865967E+01,      /* J = 70 */
(PID.TID 0000.0001)      . . .
(PID.TID 0000.0001)                 2.960628890991211E+01,      /* J = 88 */
(PID.TID 0000.0001)                 2.963960933685303E+01,      /* J = 89 */
(PID.TID 0000.0001)                 2.967291927337646E+01       /* J = 90 */
(PID.TID 0000.0001)     ;
(PID.TID 0000.0001) rcoord = /* P-point R coordinate (  units of r ) */
(PID.TID 0000.0001)                -2.500000000000000E+00,      /* K =  1 */
(PID.TID 0000.0001)                -7.500000000000000E+00,      /* K =  2 */
(PID.TID 0000.0001)                -1.250000000000000E+01,      /* K =  3 */
(PID.TID 0000.0001)                -1.750000000000000E+01,      /* K =  4 */
(PID.TID 0000.0001)                -2.250000000000000E+01,      /* K =  5 */
(PID.TID 0000.0001)                -2.750000000000000E+01,      /* K =  6 */
(PID.TID 0000.0001)                -3.250000000000000E+01,      /* K =  7 */
(PID.TID 0000.0001)                -3.750000000000000E+01,      /* K =  8 */
(PID.TID 0000.0001)                -4.250000000000000E+01,      /* K =  9 */
(PID.TID 0000.0001)                -4.750000000000000E+01,      /* K = 10 */
(PID.TID 0000.0001)                -5.250000000000000E+01,      /* K = 11 */
(PID.TID 0000.0001)                -5.750000000000000E+01,      /* K = 12 */
(PID.TID 0000.0001)                -6.250000000000000E+01,      /* K = 13 */
(PID.TID 0000.0001)                -6.750000000000000E+01,      /* K = 14 */
(PID.TID 0000.0001)                -7.250000000000000E+01,      /* K = 15 */
(PID.TID 0000.0001)                -7.750500000000000E+01,      /* K = 16 */
(PID.TID 0000.0001)                -8.251500000000000E+01,      /* K = 17 */
(PID.TID 0000.0001)                -8.753000000000000E+01,      /* K = 18 */
(PID.TID 0000.0001)                -9.256000000000000E+01,      /* K = 19 */
(PID.TID 0000.0001)                -9.761500000000001E+01,      /* K = 20 */
(PID.TID 0000.0001)                -1.027100000000000E+02,      /* K = 21 */
(PID.TID 0000.0001)                -1.078700000000000E+02,      /* K = 22 */
(PID.TID 0000.0001)                -1.131250000000000E+02,      /* K = 23 */
(PID.TID 0000.0001)                -1.185250000000000E+02,      /* K = 24 */
(PID.TID 0000.0001)                -1.241300000000000E+02,      /* K = 25 */
(PID.TID 0000.0001)                -1.300100000000000E+02,      /* K = 26 */
(PID.TID 0000.0001)                -1.362550000000000E+02,      /* K = 27 */
(PID.TID 0000.0001)                -1.429650000000000E+02,      /* K = 28 */
(PID.TID 0000.0001)                -1.502600000000000E+02,      /* K = 29 */
(PID.TID 0000.0001)                -1.582800000000000E+02,      /* K = 30 */
(PID.TID 0000.0001)                -1.671700000000000E+02,      /* K = 31 */
(PID.TID 0000.0001)                -1.770800000000000E+02,      /* K = 32 */
(PID.TID 0000.0001)                -1.881700000000000E+02,      /* K = 33 */
(PID.TID 0000.0001)                -2.005950000000000E+02,      /* K = 34 */
(PID.TID 0000.0001)                -2.145100000000000E+02,      /* K = 35 */
(PID.TID 0000.0001)                -2.300600000000000E+02,      /* K = 36 */
(PID.TID 0000.0001)                -2.473800000000000E+02,      /* K = 37 */
(PID.TID 0000.0001)                -2.665900000000000E+02,      /* K = 38 */
(PID.TID 0000.0001)                -2.877850000000000E+02,      /* K = 39 */
(PID.TID 0000.0001)                -3.110350000000000E+02,      /* K = 40 */
(PID.TID 0000.0001)                -3.363950000000000E+02,      /* K = 41 */
(PID.TID 0000.0001)                -3.638950000000000E+02,      /* K = 42 */
(PID.TID 0000.0001)                -3.935350000000000E+02,      /* K = 43 */
(PID.TID 0000.0001)                -4.252850000000000E+02,      /* K = 44 */
(PID.TID 0000.0001)                -4.590900000000000E+02,      /* K = 45 */
(PID.TID 0000.0001)                -4.948800000000001E+02,      /* K = 46 */
(PID.TID 0000.0001)                -5.325600000000001E+02,      /* K = 47 */
(PID.TID 0000.0001)                -5.720100000000001E+02,      /* K = 48 */
(PID.TID 0000.0001)                -6.130950000000001E+02,      /* K = 49 */
(PID.TID 0000.0001)                -6.556700000000002E+02,      /* K = 50 */
(PID.TID 0000.0001)                -6.995800000000002E+02,      /* K = 51 */
(PID.TID 0000.0001)                -7.446700000000002E+02,      /* K = 52 */
(PID.TID 0000.0001)                -7.907800000000002E+02,      /* K = 53 */
(PID.TID 0000.0001)                -8.377600000000002E+02,      /* K = 54 */
(PID.TID 0000.0001)                -8.854650000000003E+02,      /* K = 55 */
(PID.TID 0000.0001)                -9.337550000000002E+02,      /* K = 56 */
(PID.TID 0000.0001)                -9.825100000000002E+02,      /* K = 57 */
(PID.TID 0000.0001)                -1.031635000000000E+03,      /* K = 58 */
(PID.TID 0000.0001)                -1.081045000000000E+03,      /* K = 59 */
(PID.TID 0000.0001)                -1.130670000000000E+03,      /* K = 60 */
(PID.TID 0000.0001)                -1.180480000000000E+03,      /* K = 61 */
(PID.TID 0000.0001)                -1.230485000000000E+03,      /* K = 62 */
(PID.TID 0000.0001)                -1.280745000000000E+03,      /* K = 63 */
(PID.TID 0000.0001)                -1.331410000000000E+03,      /* K = 64 */
(PID.TID 0000.0001)                -1.382715000000000E+03,      /* K = 65 */
(PID.TID 0000.0001)                -1.434995000000000E+03,      /* K = 66 */
(PID.TID 0000.0001)                -1.488700000000000E+03,      /* K = 67 */
(PID.TID 0000.0001)                -1.544365000000000E+03,      /* K = 68 */
(PID.TID 0000.0001)                -1.602595000000000E+03,      /* K = 69 */
(PID.TID 0000.0001)                -1.664010000000000E+03,      /* K = 70 */
(PID.TID 0000.0001)                -1.729220000000000E+03,      /* K = 71 */
(PID.TID 0000.0001)                -1.798765000000000E+03,      /* K = 72 */
(PID.TID 0000.0001)                -1.873095000000000E+03,      /* K = 73 */
(PID.TID 0000.0001)                -1.952565000000000E+03,      /* K = 74 */
(PID.TID 0000.0001)                -2.037425000000000E+03,      /* K = 75 */
(PID.TID 0000.0001)                -2.127840000000000E+03,      /* K = 76 */
(PID.TID 0000.0001)                -2.223905000000000E+03,      /* K = 77 */
(PID.TID 0000.0001)                -2.325680000000000E+03,      /* K = 78 */
(PID.TID 0000.0001)                -2.433190000000001E+03,      /* K = 79 */
(PID.TID 0000.0001)                -2.546440000000001E+03,      /* K = 80 */
(PID.TID 0000.0001)                -2.665435000000000E+03,      /* K = 81 */
(PID.TID 0000.0001)                -2.790185000000000E+03,      /* K = 82 */
(PID.TID 0000.0001)                -2.920690000000001E+03,      /* K = 83 */
(PID.TID 0000.0001)                -3.056940000000001E+03,      /* K = 84 */
(PID.TID 0000.0001)                -3.198935000000000E+03,      /* K = 85 */
(PID.TID 0000.0001)                -3.346685000000000E+03,      /* K = 86 */
(PID.TID 0000.0001)                -3.500190000000001E+03,      /* K = 87 */
(PID.TID 0000.0001)                -3.659440000000001E+03,      /* K = 88 */
(PID.TID 0000.0001)                -3.824435000000000E+03,      /* K = 89 */
(PID.TID 0000.0001)                -3.995185000000000E+03,      /* K = 90 */
(PID.TID 0000.0001)                -4.171690000000001E+03,      /* K = 91 */
(PID.TID 0000.0001)                -4.353940000000001E+03,      /* K = 92 */
(PID.TID 0000.0001)                -4.541935000000000E+03,      /* K = 93 */
(PID.TID 0000.0001)                -4.735685000000000E+03,      /* K = 94 */
(PID.TID 0000.0001)                -4.935190000000001E+03,      /* K = 95 */
(PID.TID 0000.0001)                -5.140440000000001E+03,      /* K = 96 */
(PID.TID 0000.0001)                -5.351435000000000E+03,      /* K = 97 */
(PID.TID 0000.0001)                -5.568185000000000E+03,      /* K = 98 */
(PID.TID 0000.0001)                -5.790690000000001E+03,      /* K = 99 */
(PID.TID 0000.0001)                -6.018940000000001E+03       /* K =100 */
(PID.TID 0000.0001)     ;
(PID.TID 0000.0001) rF =   /* W-Interf. R coordinate (  units of r ) */
(PID.TID 0000.0001)                 0.000000000000000E+00,      /* K =  1 */
(PID.TID 0000.0001)                -5.000000000000000E+00,      /* K =  2 */
(PID.TID 0000.0001)                -1.000000000000000E+01,      /* K =  3 */
(PID.TID 0000.0001)                -1.500000000000000E+01,      /* K =  4 */
(PID.TID 0000.0001)                -2.000000000000000E+01,      /* K =  5 */
(PID.TID 0000.0001)                -2.500000000000000E+01,      /* K =  6 */
(PID.TID 0000.0001)                -3.000000000000000E+01,      /* K =  7 */
(PID.TID 0000.0001)                -3.500000000000000E+01,      /* K =  8 */
(PID.TID 0000.0001)                -4.000000000000000E+01,      /* K =  9 */
(PID.TID 0000.0001)                -4.500000000000000E+01,      /* K = 10 */
(PID.TID 0000.0001)                -5.000000000000000E+01,      /* K = 11 */
(PID.TID 0000.0001)                -5.500000000000000E+01,      /* K = 12 */
(PID.TID 0000.0001)                -6.000000000000000E+01,      /* K = 13 */
(PID.TID 0000.0001)                -6.500000000000000E+01,      /* K = 14 */
(PID.TID 0000.0001)                -7.000000000000000E+01,      /* K = 15 */
(PID.TID 0000.0001)                -7.500000000000000E+01,      /* K = 16 */
(PID.TID 0000.0001)                -8.001000000000001E+01,      /* K = 17 */
(PID.TID 0000.0001)                -8.502000000000001E+01,      /* K = 18 */
(PID.TID 0000.0001)                -9.004000000000001E+01,      /* K = 19 */
(PID.TID 0000.0001)                -9.508000000000001E+01,      /* K = 20 */
(PID.TID 0000.0001)                -1.001500000000000E+02,      /* K = 21 */
(PID.TID 0000.0001)                -1.052700000000000E+02,      /* K = 22 */
(PID.TID 0000.0001)                -1.104700000000000E+02,      /* K = 23 */
(PID.TID 0000.0001)                -1.157800000000000E+02,      /* K = 24 */
(PID.TID 0000.0001)                -1.212700000000000E+02,      /* K = 25 */
(PID.TID 0000.0001)                -1.269900000000000E+02,      /* K = 26 */
(PID.TID 0000.0001)                -1.330300000000000E+02,      /* K = 27 */
(PID.TID 0000.0001)                -1.394800000000000E+02,      /* K = 28 */
(PID.TID 0000.0001)                -1.464500000000000E+02,      /* K = 29 */
(PID.TID 0000.0001)                -1.540700000000000E+02,      /* K = 30 */
(PID.TID 0000.0001)                -1.624900000000000E+02,      /* K = 31 */
(PID.TID 0000.0001)                -1.718500000000000E+02,      /* K = 32 */
(PID.TID 0000.0001)                -1.823100000000000E+02,      /* K = 33 */
(PID.TID 0000.0001)                -1.940300000000000E+02,      /* K = 34 */
(PID.TID 0000.0001)                -2.071600000000000E+02,      /* K = 35 */
(PID.TID 0000.0001)                -2.218600000000000E+02,      /* K = 36 */
(PID.TID 0000.0001)                -2.382600000000000E+02,      /* K = 37 */
(PID.TID 0000.0001)                -2.564999999999999E+02,      /* K = 38 */
(PID.TID 0000.0001)                -2.766799999999999E+02,      /* K = 39 */
(PID.TID 0000.0001)                -2.988899999999999E+02,      /* K = 40 */
(PID.TID 0000.0001)                -3.231799999999999E+02,      /* K = 41 */
(PID.TID 0000.0001)                -3.496100000000000E+02,      /* K = 42 */
(PID.TID 0000.0001)                -3.781799999999999E+02,      /* K = 43 */
(PID.TID 0000.0001)                -4.088899999999999E+02,      /* K = 44 */
(PID.TID 0000.0001)                -4.416799999999999E+02,      /* K = 45 */
(PID.TID 0000.0001)                -4.764999999999999E+02,      /* K = 46 */
(PID.TID 0000.0001)                -5.132600000000000E+02,      /* K = 47 */
(PID.TID 0000.0001)                -5.518600000000000E+02,      /* K = 48 */
(PID.TID 0000.0001)                -5.921600000000000E+02,      /* K = 49 */
(PID.TID 0000.0001)                -6.340300000000000E+02,      /* K = 50 */
(PID.TID 0000.0001)                -6.773099999999999E+02,      /* K = 51 */
(PID.TID 0000.0001)                -7.218499999999999E+02,      /* K = 52 */
(PID.TID 0000.0001)                -7.674899999999999E+02,      /* K = 53 */
(PID.TID 0000.0001)                -8.140699999999999E+02,      /* K = 54 */
(PID.TID 0000.0001)                -8.614499999999999E+02,      /* K = 55 */
(PID.TID 0000.0001)                -9.094799999999999E+02,      /* K = 56 */
(PID.TID 0000.0001)                -9.580299999999999E+02,      /* K = 57 */
(PID.TID 0000.0001)                -1.006990000000000E+03,      /* K = 58 */
(PID.TID 0000.0001)                -1.056280000000000E+03,      /* K = 59 */
(PID.TID 0000.0001)                -1.105810000000000E+03,      /* K = 60 */
(PID.TID 0000.0001)                -1.155530000000000E+03,      /* K = 61 */
(PID.TID 0000.0001)                -1.205430000000000E+03,      /* K = 62 */
(PID.TID 0000.0001)                -1.255540000000000E+03,      /* K = 63 */
(PID.TID 0000.0001)                -1.305950000000000E+03,      /* K = 64 */
(PID.TID 0000.0001)                -1.356870000000000E+03,      /* K = 65 */
(PID.TID 0000.0001)                -1.408560000000000E+03,      /* K = 66 */
(PID.TID 0000.0001)                -1.461430000000000E+03,      /* K = 67 */
(PID.TID 0000.0001)                -1.515970000000000E+03,      /* K = 68 */
(PID.TID 0000.0001)                -1.572760000000000E+03,      /* K = 69 */
(PID.TID 0000.0001)                -1.632430000000000E+03,      /* K = 70 */
(PID.TID 0000.0001)                -1.695590000000000E+03,      /* K = 71 */
(PID.TID 0000.0001)                -1.762850000000000E+03,      /* K = 72 */
(PID.TID 0000.0001)                -1.834680000000000E+03,      /* K = 73 */
(PID.TID 0000.0001)                -1.911510000000000E+03,      /* K = 74 */
(PID.TID 0000.0001)                -1.993620000000000E+03,      /* K = 75 */
(PID.TID 0000.0001)                -2.081230000000000E+03,      /* K = 76 */
(PID.TID 0000.0001)                -2.174450000000000E+03,      /* K = 77 */
(PID.TID 0000.0001)                -2.273360000000000E+03,      /* K = 78 */
(PID.TID 0000.0001)                -2.378000000000000E+03,      /* K = 79 */
(PID.TID 0000.0001)                -2.488380000000000E+03,      /* K = 80 */
(PID.TID 0000.0001)                -2.604500000000000E+03,      /* K = 81 */
(PID.TID 0000.0001)                -2.726369999999999E+03,      /* K = 82 */
(PID.TID 0000.0001)                -2.854000000000000E+03,      /* K = 83 */
(PID.TID 0000.0001)                -2.987380000000000E+03,      /* K = 84 */
(PID.TID 0000.0001)                -3.126500000000000E+03,      /* K = 85 */
(PID.TID 0000.0001)                -3.271369999999999E+03,      /* K = 86 */
(PID.TID 0000.0001)                -3.422000000000000E+03,      /* K = 87 */
(PID.TID 0000.0001)                -3.578380000000000E+03,      /* K = 88 */
(PID.TID 0000.0001)                -3.740500000000000E+03,      /* K = 89 */
(PID.TID 0000.0001)                -3.908369999999999E+03,      /* K = 90 */
(PID.TID 0000.0001)                -4.082000000000000E+03,      /* K = 91 */
(PID.TID 0000.0001)                -4.261379999999999E+03,      /* K = 92 */
(PID.TID 0000.0001)                -4.446499999999999E+03,      /* K = 93 */
(PID.TID 0000.0001)                -4.637369999999999E+03,      /* K = 94 */
(PID.TID 0000.0001)                -4.833999999999999E+03,      /* K = 95 */
(PID.TID 0000.0001)                -5.036379999999999E+03,      /* K = 96 */
(PID.TID 0000.0001)                -5.244499999999999E+03,      /* K = 97 */
(PID.TID 0000.0001)                -5.458369999999999E+03,      /* K = 98 */
(PID.TID 0000.0001)                -5.677999999999999E+03,      /* K = 99 */
(PID.TID 0000.0001)                -5.903379999999999E+03,      /* K =100 */
(PID.TID 0000.0001)                -6.134499999999999E+03       /* K =101 */
(PID.TID 0000.0001)     ;
(PID.TID 0000.0001) deepFacC = /* deep-model grid factor @ cell-Center (-) */
(PID.TID 0000.0001)   100 @  1.000000000000000E+00              /* K =  1:100 */
(PID.TID 0000.0001)     ;
(PID.TID 0000.0001) deepFacF = /* deep-model grid factor @ W-Interface (-) */
(PID.TID 0000.0001)   101 @  1.000000000000000E+00              /* K =  1:101 */
(PID.TID 0000.0001)     ;
(PID.TID 0000.0001) rVel2wUnit = /* convert units: rVel -> wSpeed (=1 if z-coord)*/
(PID.TID 0000.0001)   101 @  1.000000000000000E+00              /* K =  1:101 */
(PID.TID 0000.0001)     ;
(PID.TID 0000.0001) wUnit2rVel = /* convert units: wSpeed -> rVel (=1 if z-coord)*/
(PID.TID 0000.0001)   101 @  1.000000000000000E+00              /* K =  1:101 */
(PID.TID 0000.0001)     ;
(PID.TID 0000.0001) dBdrRef = /* Vertical grad. of reference buoyancy [(m/s/r)^2] */
(PID.TID 0000.0001)     5 @  0.000000000000000E+00,             /* K =  1:  5 */
(PID.TID 0000.0001)                 9.694282843778342E-06,      /* K =  6 */
(PID.TID 0000.0001)                 2.426513223807763E-05,      /* K =  7 */
(PID.TID 0000.0001)                 1.452975530153167E-05,      /* K =  8 */
(PID.TID 0000.0001)                 9.681498625854328E-06,      /* K =  9 */
(PID.TID 0000.0001)                 4.842099844624020E-05,      /* K = 10 */
(PID.TID 0000.0001)                 6.280856330023614E-05,      /* K = 11 */
(PID.TID 0000.0001)                 8.185617076656702E-05,      /* K = 12 */
(PID.TID 0000.0001)                 1.295252644691406E-04,      /* K = 13 */
(PID.TID 0000.0001)                 1.095351351384002E-04,      /* K = 14 */
(PID.TID 0000.0001)                 1.329169312007239E-04,      /* K = 15 */
(PID.TID 0000.0001)                 1.367041979360881E-04,      /* K = 16 */
(PID.TID 0000.0001)                 1.211727126593573E-04,      /* K = 17 */
(PID.TID 0000.0001)                 1.302265701121417E-04,      /* K = 18 */
(PID.TID 0000.0001)                 1.190854314588815E-04,      /* K = 19 */
(PID.TID 0000.0001)                 1.132023267377615E-04,      /* K = 20 */
(PID.TID 0000.0001)                 1.071632265654582E-04,      /* K = 21 */
(PID.TID 0000.0001)                 1.051393672457803E-04,      /* K = 22 */
(PID.TID 0000.0001)                 1.025752720636568E-04,      /* K = 23 */
(PID.TID 0000.0001)                 9.917395824143918E-05,      /* K = 24 */
(PID.TID 0000.0001)                 9.104030067387556E-05,      /* K = 25 */
(PID.TID 0000.0001)                 8.624441260795840E-05,      /* K = 26 */
(PID.TID 0000.0001)                 8.413036901537412E-05,      /* K = 27 */
(PID.TID 0000.0001)                 6.366728012651445E-05,      /* K = 28 */
(PID.TID 0000.0001)                 5.812092618380799E-05,      /* K = 29 */
(PID.TID 0000.0001)                 5.507951137016039E-05,      /* K = 30 */
(PID.TID 0000.0001)                 4.695510592930360E-05,      /* K = 31 */
(PID.TID 0000.0001)                 4.596409715692217E-05,      /* K = 32 */
(PID.TID 0000.0001)                 4.072795425761271E-05,      /* K = 33 */
(PID.TID 0000.0001)                 3.175298295526856E-05,      /* K = 34 */
(PID.TID 0000.0001)                 3.093452381022950E-05,      /* K = 35 */
(PID.TID 0000.0001)                 2.864003459600112E-05,      /* K = 36 */
(PID.TID 0000.0001)                 2.767315329576147E-05,      /* K = 37 */
(PID.TID 0000.0001)                 2.463000191580109E-05,      /* K = 38 */
(PID.TID 0000.0001)                 2.475053767167416E-05,      /* K = 39 */
(PID.TID 0000.0001)                 1.906506350221241E-05,      /* K = 40 */
(PID.TID 0000.0001)                 1.865582618722828E-05,      /* K = 41 */
(PID.TID 0000.0001)                 1.823366094760355E-05,      /* K = 42 */
(PID.TID 0000.0001)                 1.471037885515795E-05,      /* K = 43 */
(PID.TID 0000.0001)                 1.630603945735049E-05,      /* K = 44 */
(PID.TID 0000.0001)                 1.384745352787863E-05,      /* K = 45 */
(PID.TID 0000.0001)                 1.226594411185851E-05,      /* K = 46 */
(PID.TID 0000.0001)                 1.225310460290910E-05,      /* K = 47 */
(PID.TID 0000.0001)                 1.223011113144029E-05,      /* K = 48 */
(PID.TID 0000.0001)                 1.061638239990844E-05,      /* K = 49 */
(PID.TID 0000.0001)                 1.070650633014499E-05,      /* K = 50 */
(PID.TID 0000.0001)                 9.357472423340062E-06,      /* K = 51 */
(PID.TID 0000.0001)                 9.812756875994976E-06,      /* K = 52 */
(PID.TID 0000.0001)                 9.364680965538371E-06,      /* K = 53 */
(PID.TID 0000.0001)                 6.430982300518885E-06,      /* K = 54 */
(PID.TID 0000.0001)                 8.970058816087760E-06,      /* K = 55 */
(PID.TID 0000.0001)                 8.398462027768182E-06,      /* K = 56 */
(PID.TID 0000.0001)                 7.294531901104187E-06,      /* K = 57 */
(PID.TID 0000.0001)                 8.642565592484861E-06,      /* K = 58 */
(PID.TID 0000.0001)                 6.405731826441176E-06,      /* K = 59 */
(PID.TID 0000.0001)                 8.743452988220992E-06,      /* K = 60 */
(PID.TID 0000.0001)                 6.590306221026928E-06,      /* K = 61 */
(PID.TID 0000.0001)                 7.462277694900194E-06,      /* K = 62 */
(PID.TID 0000.0001)                 5.625478499738029E-06,      /* K = 63 */
(PID.TID 0000.0001)                 6.494457456351866E-06,      /* K = 64 */
(PID.TID 0000.0001)                 5.872364624284492E-06,      /* K = 65 */
(PID.TID 0000.0001)                 5.495436518643386E-06,      /* K = 66 */
(PID.TID 0000.0001)                 5.094601592541214E-06,      /* K = 67 */
(PID.TID 0000.0001)                 4.437172619322077E-06,      /* K = 68 */
(PID.TID 0000.0001)                 4.016940542409763E-06,      /* K = 69 */
(PID.TID 0000.0001)                 4.028908121728164E-06,      /* K = 70 */
(PID.TID 0000.0001)                 2.246388502686123E-06,      /* K = 71 */
(PID.TID 0000.0001)                 2.998142894531076E-06,      /* K = 72 */
(PID.TID 0000.0001)                 2.815413573924730E-06,      /* K = 73 */
(PID.TID 0000.0001)                 2.814329879263964E-06,      /* K = 74 */
(PID.TID 0000.0001)                 2.327158902006369E-06,      /* K = 75 */
(PID.TID 0000.0001)                 1.523559191918705E-06,      /* K = 76 */
(PID.TID 0000.0001)                 2.223754279938488E-06,      /* K = 77 */
(PID.TID 0000.0001)                 1.243572598777220E-06,      /* K = 78 */
(PID.TID 0000.0001)                 1.884009398486976E-06,      /* K = 79 */
(PID.TID 0000.0001)                 1.146309977456730E-06,      /* K = 80 */
(PID.TID 0000.0001)                 9.836409573498765E-07,      /* K = 81 */
(PID.TID 0000.0001)                 1.666564082034753E-06,      /* K = 82 */
(PID.TID 0000.0001)                 8.096789666921265E-07,      /* K = 83 */
(PID.TID 0000.0001)                 9.015806361848934E-07,      /* K = 84 */
(PID.TID 0000.0001)                 9.899996711216439E-07,      /* K = 85 */
(PID.TID 0000.0001)                 1.360959195968683E-06,      /* K = 86 */
(PID.TID 0000.0001)                 3.633635105266278E-07,      /* K = 87 */
(PID.TID 0000.0001)                 7.257552276248978E-07,      /* K = 88 */
(PID.TID 0000.0001)                 8.165089567519712E-07,      /* K = 89 */
(PID.TID 0000.0001)                 7.043987264958734E-07,      /* K = 90 */
(PID.TID 0000.0001)                 6.956983617110328E-07,      /* K = 91 */
(PID.TID 0000.0001)                 6.880703959048398E-07,      /* K = 92 */
(PID.TID 0000.0001)                 6.813676413074075E-07,      /* K = 93 */
(PID.TID 0000.0001)                 6.754628223828996E-07,      /* K = 94 */
(PID.TID 0000.0001)                 3.049729588883796E-07,      /* K = 95 */
(PID.TID 0000.0001)                 6.657955553385863E-07,      /* K = 96 */
(PID.TID 0000.0001)                 5.675084375793845E-07,      /* K = 97 */
(PID.TID 0000.0001)                 3.767262833194376E-07,      /* K = 98 */
(PID.TID 0000.0001)                 2.816808424830599E-07,      /* K = 99 */
(PID.TID 0000.0001)                 1.873891169846885E-07       /* K =100 */
(PID.TID 0000.0001)     ;
(PID.TID 0000.0001) rotateGrid = /* use rotated grid ( True/False ) */
(PID.TID 0000.0001)                   F
(PID.TID 0000.0001)     ;
(PID.TID 0000.0001) phiEuler = /* Euler angle, rotation about original z-coordinate [rad] */
(PID.TID 0000.0001)                 0.000000000000000E+00
(PID.TID 0000.0001)     ;
(PID.TID 0000.0001) thetaEuler = /* Euler angle, rotation about new x-coordinate [rad] */
(PID.TID 0000.0001)                 0.000000000000000E+00
(PID.TID 0000.0001)     ;
(PID.TID 0000.0001) psiEuler = /* Euler angle, rotation about new z-coordinate [rad] */
(PID.TID 0000.0001)                 0.000000000000000E+00
(PID.TID 0000.0001)     ;
(PID.TID 0000.0001) dxF =  /* dxF(:,1,:,1) ( units: m ) */
(PID.TID 0000.0001)    90 @  4.139640844360528E+03              /* I =  1: 90 */
(PID.TID 0000.0001)     ;
(PID.TID 0000.0001) dxF =  /* dxF(1,:,1,:) ( units: m ) */
(PID.TID 0000.0001)                 4.139640844360528E+03,      /* J =  1 */
(PID.TID 0000.0001)                 4.138398156068276E+03,      /* J =  2 */
(PID.TID 0000.0001)                 4.137154337892096E+03,      /* J =  3 */
(PID.TID 0000.0001)      . . .
(PID.TID 0000.0001)                 4.114578631903650E+03,      /* J = 21 */
(PID.TID 0000.0001)                 4.113314130015837E+03,      /* J = 22 */
(PID.TID 0000.0001)                 4.112048568245555E+03,      /* J = 23 */
(PID.TID 0000.0001)                 4.110781948379812E+03,      /* J = 24 */
(PID.TID 0000.0001)                 4.109514272204890E+03,      /* J = 25 */
(PID.TID 0000.0001)                 4.108245541506343E+03,      /* J = 26 */
(PID.TID 0000.0001)      . . .
(PID.TID 0000.0001)                 4.086516305844601E+03,      /* J = 43 */
(PID.TID 0000.0001)                 4.085228787830029E+03,      /* J = 44 */
(PID.TID 0000.0001)                 4.083940248837513E+03,      /* J = 45 */
(PID.TID 0000.0001)                 4.082650690638008E+03,      /* J = 46 */
(PID.TID 0000.0001)                 4.081360078528878E+03,      /* J = 47 */
(PID.TID 0000.0001)                 4.080068450672382E+03,      /* J = 48 */
(PID.TID 0000.0001)      . . .
(PID.TID 0000.0001)                 4.057957376278871E+03,      /* J = 65 */
(PID.TID 0000.0001)                 4.056647767010304E+03,      /* J = 66 */
(PID.TID 0000.0001)                 4.055337212739030E+03,      /* J = 67 */
(PID.TID 0000.0001)                 4.054025678029965E+03,      /* J = 68 */
(PID.TID 0000.0001)                 4.052713164636506E+03,      /* J = 69 */
(PID.TID 0000.0001)                 4.051399674311273E+03,      /* J = 70 */
(PID.TID 0000.0001)      . . .
(PID.TID 0000.0001)                 4.027592548301442E+03,      /* J = 88 */
(PID.TID 0000.0001)                 4.026260943407077E+03,      /* J = 89 */
(PID.TID 0000.0001)                 4.024928396702262E+03       /* J = 90 */
(PID.TID 0000.0001)     ;
(PID.TID 0000.0001) dyF =  /* dyF(:,1,:,1) ( units: m ) */
(PID.TID 0000.0001)    90 @  3.805736759660797E+03              /* I =  1: 90 */
(PID.TID 0000.0001)     ;
(PID.TID 0000.0001) dyF =  /* dyF(1,:,1,:) ( units: m ) */
(PID.TID 0000.0001)                 3.805736759660797E+03,      /* J =  1 */
(PID.TID 0000.0001)                 3.804676488651810E+03,      /* J =  2 */
(PID.TID 0000.0001)                 3.803616217642822E+03,      /* J =  3 */
(PID.TID 0000.0001)      . . .
(PID.TID 0000.0001)                 3.783259014270256E+03,      /* J = 21 */
(PID.TID 0000.0001)                 3.781986689059471E+03,      /* J = 22 */
(PID.TID 0000.0001)                 3.780926418050483E+03,      /* J = 23 */
(PID.TID 0000.0001)                 3.779654092839698E+03,      /* J = 24 */
(PID.TID 0000.0001)                 3.778593821830710E+03,      /* J = 25 */
(PID.TID 0000.0001)                 3.777321496619924E+03,      /* J = 26 */
(PID.TID 0000.0001)      . . .
(PID.TID 0000.0001)                 3.757812510054549E+03,      /* J = 43 */
(PID.TID 0000.0001)                 3.756752239045562E+03,      /* J = 44 */
(PID.TID 0000.0001)                 3.755479913834776E+03,      /* J = 45 */
(PID.TID 0000.0001)                 3.754419642825788E+03,      /* J = 46 */
(PID.TID 0000.0001)                 3.753359371816800E+03,      /* J = 47 */
(PID.TID 0000.0001)                 3.752087046606015E+03,      /* J = 48 */
(PID.TID 0000.0001)      . . .
(PID.TID 0000.0001)                 3.732366005838842E+03,      /* J = 65 */
(PID.TID 0000.0001)                 3.731093680628057E+03,      /* J = 66 */
(PID.TID 0000.0001)                 3.729821355417271E+03,      /* J = 67 */
(PID.TID 0000.0001)                 3.728761084408283E+03,      /* J = 68 */
(PID.TID 0000.0001)                 3.727488759197498E+03,      /* J = 69 */
(PID.TID 0000.0001)                 3.726428488188511E+03,      /* J = 70 */
(PID.TID 0000.0001)      . . .
(PID.TID 0000.0001)                 3.705011013806957E+03,      /* J = 88 */
(PID.TID 0000.0001)                 3.703950742797969E+03,      /* J = 89 */
(PID.TID 0000.0001)                 3.702678417587184E+03       /* J = 90 */
(PID.TID 0000.0001)     ;
(PID.TID 0000.0001) dxG =  /* dxG(:,1,:,1) ( units: m ) */
(PID.TID 0000.0001)    90 @  4.140261721044909E+03              /* I =  1: 90 */
(PID.TID 0000.0001)     ;
(PID.TID 0000.0001) dxG =  /* dxG(1,:,1,:) ( units: m ) */
(PID.TID 0000.0001)                 4.140261721044909E+03,      /* J =  1 */
(PID.TID 0000.0001)                 4.139019598272403E+03,      /* J =  2 */
(PID.TID 0000.0001)                 4.137776344777035E+03,      /* J =  3 */
(PID.TID 0000.0001)      . . .
(PID.TID 0000.0001)                 4.115210445004191E+03,      /* J = 21 */
(PID.TID 0000.0001)                 4.113946455960185E+03,      /* J = 22 */
(PID.TID 0000.0001)                 4.112681441584010E+03,      /* J = 23 */
(PID.TID 0000.0001)                 4.111415332734301E+03,      /* J = 24 */
(PID.TID 0000.0001)                 4.110148202207719E+03,      /* J = 25 */
(PID.TID 0000.0001)                 4.108879980698939E+03,      /* J = 26 */
(PID.TID 0000.0001)      . . .
(PID.TID 0000.0001)                 4.087159622456270E+03,      /* J = 43 */
(PID.TID 0000.0001)                 4.085872633696104E+03,      /* J = 44 */
(PID.TID 0000.0001)                 4.084584586739682E+03,      /* J = 45 */
(PID.TID 0000.0001)                 4.083295556063611E+03,      /* J = 46 */
(PID.TID 0000.0001)                 4.082005470653015E+03,      /* J = 47 */
(PID.TID 0000.0001)                 4.080714332157602E+03,      /* J = 48 */
(PID.TID 0000.0001)      . . .
(PID.TID 0000.0001)                 4.058611770197446E+03,      /* J = 65 */
(PID.TID 0000.0001)                 4.057302634073451E+03,      /* J = 66 */
(PID.TID 0000.0001)                 4.055992552010050E+03,      /* J = 67 */
(PID.TID 0000.0001)                 4.054681525880490E+03,      /* J = 68 */
(PID.TID 0000.0001)                 4.053369482901857E+03,      /* J = 69 */
(PID.TID 0000.0001)                 4.052056499442881E+03,      /* J = 70 */
(PID.TID 0000.0001)      . . .
(PID.TID 0000.0001)                 4.028257935157928E+03,      /* J = 88 */
(PID.TID 0000.0001)                 4.026926820812773E+03,      /* J = 89 */
(PID.TID 0000.0001)                 4.025594725676684E+03       /* J = 90 */
(PID.TID 0000.0001)     ;
(PID.TID 0000.0001) dyG =  /* dyG(:,1,:,1) ( units: m ) */
(PID.TID 0000.0001)    90 @  3.805736759660797E+03              /* I =  1: 90 */
(PID.TID 0000.0001)     ;
(PID.TID 0000.0001) dyG =  /* dyG(1,:,1,:) ( units: m ) */
(PID.TID 0000.0001)                 3.805736759660797E+03,      /* J =  1 */
(PID.TID 0000.0001)                 3.804676488651810E+03,      /* J =  2 */
(PID.TID 0000.0001)                 3.803616217642822E+03,      /* J =  3 */
(PID.TID 0000.0001)      . . .
(PID.TID 0000.0001)                 3.783259014270256E+03,      /* J = 21 */
(PID.TID 0000.0001)                 3.781986689059471E+03,      /* J = 22 */
(PID.TID 0000.0001)                 3.780926418050483E+03,      /* J = 23 */
(PID.TID 0000.0001)                 3.779654092839698E+03,      /* J = 24 */
(PID.TID 0000.0001)                 3.778593821830710E+03,      /* J = 25 */
(PID.TID 0000.0001)                 3.777321496619924E+03,      /* J = 26 */
(PID.TID 0000.0001)      . . .
(PID.TID 0000.0001)                 3.757812510054549E+03,      /* J = 43 */
(PID.TID 0000.0001)                 3.756752239045562E+03,      /* J = 44 */
(PID.TID 0000.0001)                 3.755479913834776E+03,      /* J = 45 */
(PID.TID 0000.0001)                 3.754419642825788E+03,      /* J = 46 */
(PID.TID 0000.0001)                 3.753359371816800E+03,      /* J = 47 */
(PID.TID 0000.0001)                 3.752087046606015E+03,      /* J = 48 */
(PID.TID 0000.0001)      . . .
(PID.TID 0000.0001)                 3.732366005838842E+03,      /* J = 65 */
(PID.TID 0000.0001)                 3.731093680628057E+03,      /* J = 66 */
(PID.TID 0000.0001)                 3.729821355417271E+03,      /* J = 67 */
(PID.TID 0000.0001)                 3.728761084408283E+03,      /* J = 68 */
(PID.TID 0000.0001)                 3.727488759197498E+03,      /* J = 69 */
(PID.TID 0000.0001)                 3.726428488188511E+03,      /* J = 70 */
(PID.TID 0000.0001)      . . .
(PID.TID 0000.0001)                 3.705011013806957E+03,      /* J = 88 */
(PID.TID 0000.0001)                 3.703950742797969E+03,      /* J = 89 */
(PID.TID 0000.0001)                 3.702678417587184E+03       /* J = 90 */
(PID.TID 0000.0001)     ;
(PID.TID 0000.0001) dxC =  /* dxC(:,1,:,1) ( units: m ) */
(PID.TID 0000.0001)    90 @  4.139640844360528E+03              /* I =  1: 90 */
(PID.TID 0000.0001)     ;
(PID.TID 0000.0001) dxC =  /* dxC(1,:,1,:) ( units: m ) */
(PID.TID 0000.0001)                 4.139640844360528E+03,      /* J =  1 */
(PID.TID 0000.0001)                 4.138398156068276E+03,      /* J =  2 */
(PID.TID 0000.0001)                 4.137154337892096E+03,      /* J =  3 */
(PID.TID 0000.0001)      . . .
(PID.TID 0000.0001)                 4.114578631903650E+03,      /* J = 21 */
(PID.TID 0000.0001)                 4.113314130015837E+03,      /* J = 22 */
(PID.TID 0000.0001)                 4.112048568245555E+03,      /* J = 23 */
(PID.TID 0000.0001)                 4.110781948379812E+03,      /* J = 24 */
(PID.TID 0000.0001)                 4.109514272204890E+03,      /* J = 25 */
(PID.TID 0000.0001)                 4.108245541506343E+03,      /* J = 26 */
(PID.TID 0000.0001)      . . .
(PID.TID 0000.0001)                 4.086516305844601E+03,      /* J = 43 */
(PID.TID 0000.0001)                 4.085228787830029E+03,      /* J = 44 */
(PID.TID 0000.0001)                 4.083940248837513E+03,      /* J = 45 */
(PID.TID 0000.0001)                 4.082650690638008E+03,      /* J = 46 */
(PID.TID 0000.0001)                 4.081360078528878E+03,      /* J = 47 */
(PID.TID 0000.0001)                 4.080068450672382E+03,      /* J = 48 */
(PID.TID 0000.0001)      . . .
(PID.TID 0000.0001)                 4.057957376278871E+03,      /* J = 65 */
(PID.TID 0000.0001)                 4.056647767010304E+03,      /* J = 66 */
(PID.TID 0000.0001)                 4.055337212739030E+03,      /* J = 67 */
(PID.TID 0000.0001)                 4.054025678029965E+03,      /* J = 68 */
(PID.TID 0000.0001)                 4.052713164636506E+03,      /* J = 69 */
(PID.TID 0000.0001)                 4.051399674311273E+03,      /* J = 70 */
(PID.TID 0000.0001)      . . .
(PID.TID 0000.0001)                 4.027592548301442E+03,      /* J = 88 */
(PID.TID 0000.0001)                 4.026260943407077E+03,      /* J = 89 */
(PID.TID 0000.0001)                 4.024928396702262E+03       /* J = 90 */
(PID.TID 0000.0001)     ;
(PID.TID 0000.0001) dyC =  /* dyC(:,1,:,1) ( units: m ) */
(PID.TID 0000.0001)    90 @  3.465707847078411E+03              /* I =  1: 90 */
(PID.TID 0000.0001)     ;
(PID.TID 0000.0001) dyC =  /* dyC(1,:,1,:) ( units: m ) */
(PID.TID 0000.0001)                 3.465707847078411E+03,      /* J =  1 */
(PID.TID 0000.0001)                 3.805206624156303E+03,      /* J =  2 */
(PID.TID 0000.0001)                 3.804146353147316E+03,      /* J =  3 */
(PID.TID 0000.0001)      . . .
(PID.TID 0000.0001)                 3.783683122673851E+03,      /* J = 21 */
(PID.TID 0000.0001)                 3.782622851664863E+03,      /* J = 22 */
(PID.TID 0000.0001)                 3.781456553554977E+03,      /* J = 23 */
(PID.TID 0000.0001)                 3.780290255445090E+03,      /* J = 24 */
(PID.TID 0000.0001)                 3.779123957335204E+03,      /* J = 25 */
(PID.TID 0000.0001)                 3.777957659225317E+03,      /* J = 26 */
(PID.TID 0000.0001)      . . .
(PID.TID 0000.0001)                 3.758448672659942E+03,      /* J = 43 */
(PID.TID 0000.0001)                 3.757282374550055E+03,      /* J = 44 */
(PID.TID 0000.0001)                 3.756116076440168E+03,      /* J = 45 */
(PID.TID 0000.0001)                 3.754949778330282E+03,      /* J = 46 */
(PID.TID 0000.0001)                 3.753889507321294E+03,      /* J = 47 */
(PID.TID 0000.0001)                 3.752723209211408E+03,      /* J = 48 */
(PID.TID 0000.0001)      . . .
(PID.TID 0000.0001)                 3.732896141343336E+03,      /* J = 65 */
(PID.TID 0000.0001)                 3.731729843233449E+03,      /* J = 66 */
(PID.TID 0000.0001)                 3.730457518022664E+03,      /* J = 67 */
(PID.TID 0000.0001)                 3.729291219912777E+03,      /* J = 68 */
(PID.TID 0000.0001)                 3.728124921802891E+03,      /* J = 69 */
(PID.TID 0000.0001)                 3.726958623693004E+03,      /* J = 70 */
(PID.TID 0000.0001)      . . .
(PID.TID 0000.0001)                 3.705647176412349E+03,      /* J = 88 */
(PID.TID 0000.0001)                 3.704480878302463E+03,      /* J = 89 */
(PID.TID 0000.0001)                 3.703314580192576E+03       /* J = 90 */
(PID.TID 0000.0001)     ;
(PID.TID 0000.0001) dxV =  /* dxV(:,1,:,1) ( units: m ) */
(PID.TID 0000.0001)    90 @  4.140261721044909E+03              /* I =  1: 90 */
(PID.TID 0000.0001)     ;
(PID.TID 0000.0001) dxV =  /* dxV(1,:,1,:) ( units: m ) */
(PID.TID 0000.0001)                 4.140261721044909E+03,      /* J =  1 */
(PID.TID 0000.0001)                 4.139019598272403E+03,      /* J =  2 */
(PID.TID 0000.0001)                 4.137776344777035E+03,      /* J =  3 */
(PID.TID 0000.0001)      . . .
(PID.TID 0000.0001)                 4.115210445004191E+03,      /* J = 21 */
(PID.TID 0000.0001)                 4.113946455960185E+03,      /* J = 22 */
(PID.TID 0000.0001)                 4.112681441584010E+03,      /* J = 23 */
(PID.TID 0000.0001)                 4.111415332734301E+03,      /* J = 24 */
(PID.TID 0000.0001)                 4.110148202207719E+03,      /* J = 25 */
(PID.TID 0000.0001)                 4.108879980698939E+03,      /* J = 26 */
(PID.TID 0000.0001)      . . .
(PID.TID 0000.0001)                 4.087159622456270E+03,      /* J = 43 */
(PID.TID 0000.0001)                 4.085872633696104E+03,      /* J = 44 */
(PID.TID 0000.0001)                 4.084584586739682E+03,      /* J = 45 */
(PID.TID 0000.0001)                 4.083295556063611E+03,      /* J = 46 */
(PID.TID 0000.0001)                 4.082005470653015E+03,      /* J = 47 */
(PID.TID 0000.0001)                 4.080714332157602E+03,      /* J = 48 */
(PID.TID 0000.0001)      . . .
(PID.TID 0000.0001)                 4.058611770197446E+03,      /* J = 65 */
(PID.TID 0000.0001)                 4.057302634073451E+03,      /* J = 66 */
(PID.TID 0000.0001)                 4.055992552010050E+03,      /* J = 67 */
(PID.TID 0000.0001)                 4.054681525880490E+03,      /* J = 68 */
(PID.TID 0000.0001)                 4.053369482901857E+03,      /* J = 69 */
(PID.TID 0000.0001)                 4.052056499442881E+03,      /* J = 70 */
(PID.TID 0000.0001)      . . .
(PID.TID 0000.0001)                 4.028257935157928E+03,      /* J = 88 */
(PID.TID 0000.0001)                 4.026926820812773E+03,      /* J = 89 */
(PID.TID 0000.0001)                 4.025594725676684E+03       /* J = 90 */
(PID.TID 0000.0001)     ;
(PID.TID 0000.0001) dyU =  /* dyU(:,1,:,1) ( units: m ) */
(PID.TID 0000.0001)    90 @  3.465707847078411E+03              /* I =  1: 90 */
(PID.TID 0000.0001)     ;
(PID.TID 0000.0001) dyU =  /* dyU(1,:,1,:) ( units: m ) */
(PID.TID 0000.0001)                 3.465707847078411E+03,      /* J =  1 */
(PID.TID 0000.0001)                 3.805206624156303E+03,      /* J =  2 */
(PID.TID 0000.0001)                 3.804146353147316E+03,      /* J =  3 */
(PID.TID 0000.0001)      . . .
(PID.TID 0000.0001)                 3.783683122673851E+03,      /* J = 21 */
(PID.TID 0000.0001)                 3.782622851664863E+03,      /* J = 22 */
(PID.TID 0000.0001)                 3.781456553554977E+03,      /* J = 23 */
(PID.TID 0000.0001)                 3.780290255445090E+03,      /* J = 24 */
(PID.TID 0000.0001)                 3.779123957335204E+03,      /* J = 25 */
(PID.TID 0000.0001)                 3.777957659225317E+03,      /* J = 26 */
(PID.TID 0000.0001)      . . .
(PID.TID 0000.0001)                 3.758448672659942E+03,      /* J = 43 */
(PID.TID 0000.0001)                 3.757282374550055E+03,      /* J = 44 */
(PID.TID 0000.0001)                 3.756116076440168E+03,      /* J = 45 */
(PID.TID 0000.0001)                 3.754949778330282E+03,      /* J = 46 */
(PID.TID 0000.0001)                 3.753889507321294E+03,      /* J = 47 */
(PID.TID 0000.0001)                 3.752723209211408E+03,      /* J = 48 */
(PID.TID 0000.0001)      . . .
(PID.TID 0000.0001)                 3.732896141343336E+03,      /* J = 65 */
(PID.TID 0000.0001)                 3.731729843233449E+03,      /* J = 66 */
(PID.TID 0000.0001)                 3.730457518022664E+03,      /* J = 67 */
(PID.TID 0000.0001)                 3.729291219912777E+03,      /* J = 68 */
(PID.TID 0000.0001)                 3.728124921802891E+03,      /* J = 69 */
(PID.TID 0000.0001)                 3.726958623693004E+03,      /* J = 70 */
(PID.TID 0000.0001)      . . .
(PID.TID 0000.0001)                 3.705647176412349E+03,      /* J = 88 */
(PID.TID 0000.0001)                 3.704480878302463E+03,      /* J = 89 */
(PID.TID 0000.0001)                 3.703314580192576E+03       /* J = 90 */
(PID.TID 0000.0001)     ;
(PID.TID 0000.0001) rA  =  /* rA (:,1,:,1) ( units: m^2 ) */
(PID.TID 0000.0001)    90 @  1.575438309886870E+07              /* I =  1: 90 */
(PID.TID 0000.0001)     ;
(PID.TID 0000.0001) rA  =  /* rA (1,:,1,:) ( units: m^2 ) */
(PID.TID 0000.0001)                 1.575438309886870E+07,      /* J =  1 */
(PID.TID 0000.0001)                 1.574526593103012E+07,      /* J =  2 */
(PID.TID 0000.0001)                 1.573614710072067E+07,      /* J =  3 */
(PID.TID 0000.0001)      . . .
(PID.TID 0000.0001)                 1.556651647028628E+07,      /* J = 21 */
(PID.TID 0000.0001)                 1.555649905915226E+07,      /* J = 22 */
(PID.TID 0000.0001)                 1.554735283576100E+07,      /* J = 23 */
(PID.TID 0000.0001)                 1.553733358804201E+07,      /* J = 24 */
(PID.TID 0000.0001)                 1.552818501201680E+07,      /* J = 25 */
(PID.TID 0000.0001)                 1.551816396996124E+07,      /* J = 26 */
(PID.TID 0000.0001)      . . .
(PID.TID 0000.0001)                 1.535636187397145E+07,      /* J = 43 */
(PID.TID 0000.0001)                 1.534719217327880E+07,      /* J = 44 */
(PID.TID 0000.0001)                 1.533715535169233E+07,      /* J = 45 */
(PID.TID 0000.0001)                 1.532798372586704E+07,      /* J = 46 */
(PID.TID 0000.0001)                 1.531881087890220E+07,      /* J = 47 */
(PID.TID 0000.0001)                 1.530877176172662E+07,      /* J = 48 */
(PID.TID 0000.0001)      . . .
(PID.TID 0000.0001)                 1.514578194771098E+07,      /* J = 65 */
(PID.TID 0000.0001)                 1.513573263166044E+07,      /* J = 66 */
(PID.TID 0000.0001)                 1.512568312341997E+07,      /* J = 67 */
(PID.TID 0000.0001)                 1.511649296761149E+07,      /* J = 68 */
(PID.TID 0000.0001)                 1.510644254990678E+07,      /* J = 69 */
(PID.TID 0000.0001)                 1.509725094811608E+07,      /* J = 70 */
(PID.TID 0000.0001)      . . .
(PID.TID 0000.0001)                 1.492227454024103E+07,      /* J = 88 */
(PID.TID 0000.0001)                 1.491307200194015E+07,      /* J = 89 */
(PID.TID 0000.0001)                 1.490301529699830E+07       /* J = 90 */
(PID.TID 0000.0001)     ;
(PID.TID 0000.0001) rAw =  /* rAw(:,1,:,1) ( units: m^2 ) */
(PID.TID 0000.0001)    90 @  1.575438309886870E+07              /* I =  1: 90 */
(PID.TID 0000.0001)     ;
(PID.TID 0000.0001) rAw =  /* rAw(1,:,1,:) ( units: m^2 ) */
(PID.TID 0000.0001)                 1.575438309886870E+07,      /* J =  1 */
(PID.TID 0000.0001)                 1.574526593103012E+07,      /* J =  2 */
(PID.TID 0000.0001)                 1.573614710072067E+07,      /* J =  3 */
(PID.TID 0000.0001)      . . .
(PID.TID 0000.0001)                 1.556651647028628E+07,      /* J = 21 */
(PID.TID 0000.0001)                 1.555649905915226E+07,      /* J = 22 */
(PID.TID 0000.0001)                 1.554735283576100E+07,      /* J = 23 */
(PID.TID 0000.0001)                 1.553733358804201E+07,      /* J = 24 */
(PID.TID 0000.0001)                 1.552818501201680E+07,      /* J = 25 */
(PID.TID 0000.0001)                 1.551816396996124E+07,      /* J = 26 */
(PID.TID 0000.0001)      . . .
(PID.TID 0000.0001)                 1.535636187397145E+07,      /* J = 43 */
(PID.TID 0000.0001)                 1.534719217327880E+07,      /* J = 44 */
(PID.TID 0000.0001)                 1.533715535169233E+07,      /* J = 45 */
(PID.TID 0000.0001)                 1.532798372586704E+07,      /* J = 46 */
(PID.TID 0000.0001)                 1.531881087890220E+07,      /* J = 47 */
(PID.TID 0000.0001)                 1.530877176172662E+07,      /* J = 48 */
(PID.TID 0000.0001)      . . .
(PID.TID 0000.0001)                 1.514578194771098E+07,      /* J = 65 */
(PID.TID 0000.0001)                 1.513573263166044E+07,      /* J = 66 */
(PID.TID 0000.0001)                 1.512568312341997E+07,      /* J = 67 */
(PID.TID 0000.0001)                 1.511649296761149E+07,      /* J = 68 */
(PID.TID 0000.0001)                 1.510644254990678E+07,      /* J = 69 */
(PID.TID 0000.0001)                 1.509725094811608E+07,      /* J = 70 */
(PID.TID 0000.0001)      . . .
(PID.TID 0000.0001)                 1.492227454024103E+07,      /* J = 88 */
(PID.TID 0000.0001)                 1.491307200194015E+07,      /* J = 89 */
(PID.TID 0000.0001)                 1.490301529699830E+07       /* J = 90 */
(PID.TID 0000.0001)     ;
(PID.TID 0000.0001) rAs =  /* rAs(:,1,:,1) ( units: m^2 ) */
(PID.TID 0000.0001)    90 @  1.434874515713397E+07              /* I =  1: 90 */
(PID.TID 0000.0001)     ;
(PID.TID 0000.0001) rAs =  /* rAs(1,:,1,:) ( units: m^2 ) */
(PID.TID 0000.0001)                 1.434874515713397E+07,      /* J =  1 */
(PID.TID 0000.0001)                 1.574982488807916E+07,      /* J =  2 */
(PID.TID 0000.0001)                 1.574070688790848E+07,      /* J =  3 */
(PID.TID 0000.0001)      . . .
(PID.TID 0000.0001)                 1.557065234602267E+07,      /* J = 21 */
(PID.TID 0000.0001)                 1.556150804841762E+07,      /* J = 22 */
(PID.TID 0000.0001)                 1.555192629706736E+07,      /* J = 23 */
(PID.TID 0000.0001)                 1.554234349323534E+07,      /* J = 24 */
(PID.TID 0000.0001)                 1.553275964738865E+07,      /* J = 25 */
(PID.TID 0000.0001)                 1.552317476996653E+07,      /* J = 26 */
(PID.TID 0000.0001)      . . .
(PID.TID 0000.0001)                 1.536137984435806E+07,      /* J = 43 */
(PID.TID 0000.0001)                 1.535177734997811E+07,      /* J = 44 */
(PID.TID 0000.0001)                 1.534217401942485E+07,      /* J = 45 */
(PID.TID 0000.0001)                 1.533256986292950E+07,      /* J = 46 */
(PID.TID 0000.0001)                 1.532339762548036E+07,      /* J = 47 */
(PID.TID 0000.0001)                 1.531379157383674E+07,      /* J = 48 */
(PID.TID 0000.0001)      . . .
(PID.TID 0000.0001)                 1.515037634627304E+07,      /* J = 65 */
(PID.TID 0000.0001)                 1.514075752265306E+07,      /* J = 66 */
(PID.TID 0000.0001)                 1.513070810933390E+07,      /* J = 67 */
(PID.TID 0000.0001)                 1.512108834570999E+07,      /* J = 68 */
(PID.TID 0000.0001)                 1.511146798829233E+07,      /* J = 69 */
(PID.TID 0000.0001)                 1.510184704705331E+07,      /* J = 70 */
(PID.TID 0000.0001)      . . .
(PID.TID 0000.0001)                 1.492730285605174E+07,      /* J = 88 */
(PID.TID 0000.0001)                 1.491767354877487E+07,      /* J = 89 */
(PID.TID 0000.0001)                 1.490804385545228E+07       /* J = 90 */
(PID.TID 0000.0001)     ;
(PID.TID 0000.0001) globalArea = /* Integrated horizontal Area (m^2) */
(PID.TID 0000.0001)                 1.130146430983181E+13
(PID.TID 0000.0001)     ;
(PID.TID 0000.0001) // =======================================================
(PID.TID 0000.0001) // End of Model config. summary
(PID.TID 0000.0001) // =======================================================
(PID.TID 0000.0001) 
(PID.TID 0000.0001) == Packages configuration : Check & print summary ==
(PID.TID 0000.0001) 
(PID.TID 0000.0001) OBCS_CHECK: #define ALLOW_OBCS
(PID.TID 0000.0001) OBCS_CHECK: start summary:
(PID.TID 0000.0001) useOBCSprescribe = /* prescribe OB values */
(PID.TID 0000.0001)                   T
(PID.TID 0000.0001)     ;
(PID.TID 0000.0001) useOBCSbalance = /* balance the flow through OB */
(PID.TID 0000.0001)                   T
(PID.TID 0000.0001)     ;
(PID.TID 0000.0001) OBCS_balanceFacN = /* Northern OB Factor for balancing OB flow [-] */
(PID.TID 0000.0001)                -1.000000000000000E+00
(PID.TID 0000.0001)     ;
(PID.TID 0000.0001) OBCS_balanceFacS = /* Southern OB Factor for balancing OB flow [-] */
(PID.TID 0000.0001)                -1.000000000000000E+00
(PID.TID 0000.0001)     ;
(PID.TID 0000.0001) OBCS_balanceFacE = /* Eastern  OB Factor for balancing OB flow [-] */
(PID.TID 0000.0001)                 1.000000000000000E+00
(PID.TID 0000.0001)     ;
(PID.TID 0000.0001) OBCS_balanceFacW = /* Western  OB Factor for balancing OB flow [-] */
(PID.TID 0000.0001)                 1.000000000000000E+00
(PID.TID 0000.0001)     ;
(PID.TID 0000.0001) OBCS_uvApplyFac = /* Factor to apply to U,V 2nd column/row */
(PID.TID 0000.0001)                 1.000000000000000E+00
(PID.TID 0000.0001)     ;
(PID.TID 0000.0001) OBCS_u1_adv_T = /* Temp uses upwind adv-scheme @ OB */
(PID.TID 0000.0001)                       1
(PID.TID 0000.0001)     ;
(PID.TID 0000.0001) OBCS_u1_adv_S = /* Salt uses upwind adv-scheme @ OB */
(PID.TID 0000.0001)                       1
(PID.TID 0000.0001)     ;
(PID.TID 0000.0001) OBCS_monitorFreq = /* monitor output frequency [s] */
(PID.TID 0000.0001)                 2.400000000000000E+02
(PID.TID 0000.0001)     ;
(PID.TID 0000.0001) OBCS_monSelect = /* select group of variables to monitor */
(PID.TID 0000.0001)                       3
(PID.TID 0000.0001)     ;
(PID.TID 0000.0001) useOBCStides = /* apply tidal forcing through OB */
(PID.TID 0000.0001)                   T
(PID.TID 0000.0001)     ;
(PID.TID 0000.0001) tidalPeriod = /* (s) */
(PID.TID 0000.0001)                 4.471416500000000E+04,      /* I =  1 */
(PID.TID 0000.0001)                 4.320000100000000E+04,      /* I =  2 */
(PID.TID 0000.0001)                 4.557005400000000E+04,      /* I =  3 */
(PID.TID 0000.0001)                 4.308205000000000E+04,      /* I =  4 */
(PID.TID 0000.0001)                 8.616407700000000E+04,      /* I =  5 */
(PID.TID 0000.0001)                 9.294963600000000E+04,      /* I =  6 */
(PID.TID 0000.0001)                 8.663720000000000E+04,      /* I =  7 */
(PID.TID 0000.0001)                 9.672608600000000E+04,      /* I =  8 */
(PID.TID 0000.0001)                 1.180295546000000E+06,      /* I =  9 */
(PID.TID 0000.0001)                 2.380715864000000E+06,      /* I = 10 */
(PID.TID 0000.0001)                 2.235709100000000E+04,      /* I = 11 */
(PID.TID 0000.0001)                 2.197202200000000E+04,      /* I = 12 */
(PID.TID 0000.0001)                 2.256904200000000E+04       /* I = 13 */
(PID.TID 0000.0001)     ;
(PID.TID 0000.0001) OB_indexNone = /* null value for OB index (i.e. no OB) */
(PID.TID 0000.0001)                     -99
(PID.TID 0000.0001)     ;
(PID.TID 0000.0001) ======== Tile bi=   1 , bj=   1 ========
(PID.TID 0000.0001)  OB_Jn = /* Northern OB local indices */
(PID.TID 0000.0001)    98 @      -99                            /* I = -3: 94 */
(PID.TID 0000.0001)  OB_Js = /* Southern OB local indices */
(PID.TID 0000.0001)     4 @      -99,                           /* I = -3:  0 */
(PID.TID 0000.0001)    94 @        8                            /* I =  1: 94 */
(PID.TID 0000.0001)  OB_Ie = /* Eastern OB local indices */
(PID.TID 0000.0001)    98 @      -99                            /* J = -3: 94 */
(PID.TID 0000.0001)  OB_Iw = /* Western OB local indices */
(PID.TID 0000.0001)    98 @      -99                            /* J = -3: 94 */
(PID.TID 0000.0001) OBCS_CHECK: end summary.
(PID.TID 0000.0001) OBCS_CHECK: set-up OK
(PID.TID 0000.0001) OBCS_CHECK: check Inside Mask and OB locations: OK
(PID.TID 0000.0001) KPP_CHECK: #define ALLOW_KPP
(PID.TID 0000.0001)  kpp_freq = /* frequency of KPP calculation */
(PID.TID 0000.0001)                 2.400000000000000E+02
(PID.TID 0000.0001)     ;
(PID.TID 0000.0001) KPP_ghatUseTotalDiffus= /* non-local term fct of total diffus */
(PID.TID 0000.0001)                   F
(PID.TID 0000.0001)     ;
(PID.TID 0000.0001) KPPuseDoubleDiff = /* include double diffusive contrib */
(PID.TID 0000.0001)                   F
(PID.TID 0000.0001)     ;
(PID.TID 0000.0001) LimitHblStable = /* limits depth of hbl if stable cond.*/
(PID.TID 0000.0001)                   T
(PID.TID 0000.0001)     ;
(PID.TID 0000.0001)  minKPPhbl = /* minimum KPPhbl value [m] */
(PID.TID 0000.0001)                 2.500000000000000E+00
(PID.TID 0000.0001)     ;
(PID.TID 0000.0001)  epsln     = /* constant [-] */
(PID.TID 0000.0001)                 9.999999999999999E-21
(PID.TID 0000.0001)     ;
(PID.TID 0000.0001)  phepsi    = /* constant [-] */
(PID.TID 0000.0001)                 1.000000000000000E-10
(PID.TID 0000.0001)     ;
(PID.TID 0000.0001)  epsilon   = /* constant [-] */
(PID.TID 0000.0001)                 1.000000000000000E-01
(PID.TID 0000.0001)     ;
(PID.TID 0000.0001)  vonk      = /* Von Karmans constant [-] */
(PID.TID 0000.0001)                 4.000000000000000E-01
(PID.TID 0000.0001)     ;
(PID.TID 0000.0001)  dB_dz     = /* maximum N^2 in mixed layer [s^-2] */
(PID.TID 0000.0001)                 5.200000000000000E-05
(PID.TID 0000.0001)     ;
(PID.TID 0000.0001)  conc1     = /* scalar constant [-] */
(PID.TID 0000.0001)                 5.000000000000000E+00
(PID.TID 0000.0001)     ;
(PID.TID 0000.0001)  conam     = /* scalar constant [-] */
(PID.TID 0000.0001)                 1.257000000000000E+00
(PID.TID 0000.0001)     ;
(PID.TID 0000.0001)  concm     = /* scalar constant [-] */
(PID.TID 0000.0001)                 8.380000000000001E+00
(PID.TID 0000.0001)     ;
(PID.TID 0000.0001)  conc2     = /* scalar constant [-] */
(PID.TID 0000.0001)                 1.600000000000000E+01
(PID.TID 0000.0001)     ;
(PID.TID 0000.0001)  conas     = /* scalar constant [-] */
(PID.TID 0000.0001)                -2.886000000000000E+01
(PID.TID 0000.0001)     ;
(PID.TID 0000.0001)  concs     = /* scalar constant [-] */
(PID.TID 0000.0001)                 9.895999999999999E+01
(PID.TID 0000.0001)     ;
(PID.TID 0000.0001)  conc3     = /* scalar constant [-] */
(PID.TID 0000.0001)                 1.600000000000000E+01
(PID.TID 0000.0001)     ;
(PID.TID 0000.0001)  zetam     = /* scalar constant [-] */
(PID.TID 0000.0001)                -2.000000000000000E-01
(PID.TID 0000.0001)     ;
(PID.TID 0000.0001)  zetas     = /* scalar constant [-] */
(PID.TID 0000.0001)                -1.000000000000000E+00
(PID.TID 0000.0001)     ;
(PID.TID 0000.0001)  Ricr      = /* critical bulk Richardson Number [-] */
(PID.TID 0000.0001)                 3.000000000000000E-01
(PID.TID 0000.0001)     ;
(PID.TID 0000.0001)  cekman    = /* coeff for Ekman depth [-] */
(PID.TID 0000.0001)                 7.000000000000000E-01
(PID.TID 0000.0001)     ;
(PID.TID 0000.0001)  cmonob    = /* coeff for Monin-Obukhov depth [-] */
(PID.TID 0000.0001)                 1.000000000000000E+00
(PID.TID 0000.0001)     ;
(PID.TID 0000.0001)  concv     = /* buoyancy freq ratio [-] */
(PID.TID 0000.0001)                 1.800000000000000E+00
(PID.TID 0000.0001)     ;
(PID.TID 0000.0001)  hbf       = /* solar radiation depth ratio [-] */
(PID.TID 0000.0001)                 1.000000000000000E+00
(PID.TID 0000.0001)     ;
(PID.TID 0000.0001)  zmin      = /* minimum for zehat in table [m3/s3] */
(PID.TID 0000.0001)                -4.000000000000000E-07
(PID.TID 0000.0001)     ;
(PID.TID 0000.0001)  zmax      = /* maximum for zehat in table [m3/s3] */
(PID.TID 0000.0001)                 0.000000000000000E+00
(PID.TID 0000.0001)     ;
(PID.TID 0000.0001)  umin      = /* minimum for ustar in table [m/s] */
(PID.TID 0000.0001)                 0.000000000000000E+00
(PID.TID 0000.0001)     ;
(PID.TID 0000.0001)  umax      = /* maximum for ustar in table [m/s] */
(PID.TID 0000.0001)                 4.000000000000000E-02
(PID.TID 0000.0001)     ;
(PID.TID 0000.0001) num_v_smooth_Ri = /* number of vertical smoothing */
(PID.TID 0000.0001)                       0
(PID.TID 0000.0001)     ;
(PID.TID 0000.0001)  Riinfty   = /* shear instability Ri number limit [-] */
(PID.TID 0000.0001)                 7.000000000000000E-01
(PID.TID 0000.0001)     ;
(PID.TID 0000.0001)  BVSQcon   = /* Brunt-Vaisala squared (=N^2) [s^-2] */
(PID.TID 0000.0001)                -2.000000000000000E-05
(PID.TID 0000.0001)     ;
(PID.TID 0000.0001)  difm0     = /* max viscosity from shear instab. [m2/s] */
(PID.TID 0000.0001)                 5.000000000000000E-03
(PID.TID 0000.0001)     ;
(PID.TID 0000.0001)  difs0     = /* max diffusiv. from shear instab. [m2/s] */
(PID.TID 0000.0001)                 5.000000000000000E-03
(PID.TID 0000.0001)     ;
(PID.TID 0000.0001)  dift0     = /* max diffusiv. from shear instab. [m2/s] */
(PID.TID 0000.0001)                 5.000000000000000E-03
(PID.TID 0000.0001)     ;
(PID.TID 0000.0001)  difmcon   = /* convective viscosity [m2/s] */
(PID.TID 0000.0001)                 1.000000000000000E-01
(PID.TID 0000.0001)     ;
(PID.TID 0000.0001)  difscon   = /* convective diffusiv. [m2/s] */
(PID.TID 0000.0001)                 1.000000000000000E-01
(PID.TID 0000.0001)     ;
(PID.TID 0000.0001)  diftcon   = /* convective diffusiv. [m2/s] */
(PID.TID 0000.0001)                 1.000000000000000E-01
(PID.TID 0000.0001)     ;
(PID.TID 0000.0001)  Rrho0     = /* double diffusion density ratio [-] */
(PID.TID 0000.0001)                 1.900000000000000E+00
(PID.TID 0000.0001)     ;
(PID.TID 0000.0001)  dsfmax    = /* max diffusiv. for salt fingering [m2/s] */
(PID.TID 0000.0001)                 1.000000000000000E-02
(PID.TID 0000.0001)     ;
(PID.TID 0000.0001)  cstar     = /* coeff for non-locak transport [-] */
(PID.TID 0000.0001)                 1.000000000000000E+01
(PID.TID 0000.0001)     ;
(PID.TID 0000.0001) KPPwriteState = /* write KPP fields to file */
(PID.TID 0000.0001)                   F
(PID.TID 0000.0001)     ;
(PID.TID 0000.0001)  kpp_dumpFreq = /* dump freq of KPP output */
(PID.TID 0000.0001)                 0.000000000000000E+00
(PID.TID 0000.0001)     ;
(PID.TID 0000.0001)  kpp_taveFreq = /* time-averaging freq of KPP output */
(PID.TID 0000.0001)                 0.000000000000000E+00
(PID.TID 0000.0001)     ;
(PID.TID 0000.0001) 
(PID.TID 0000.0001) EXF_CHECK: #define ALLOW_EXF
(PID.TID 0000.0001) GAD_CHECK: #define ALLOW_GENERIC_ADVDIFF
(PID.TID 0000.0001) // =======================================================
(PID.TID 0000.0001) // Check Model config. (CONFIG_CHECK):
(PID.TID 0000.0001) // CONFIG_CHECK : Normal End
(PID.TID 0000.0001) // =======================================================
(PID.TID 0000.0001) 
(PID.TID 0000.0001)  MDS_READ_FIELD: opening global file: U0_2160x540x100.bin
(PID.TID 0000.0001)  MDS_READ_FIELD: opening global file: V0_2160x540x100.bin
(PID.TID 0000.0001)  MDS_READ_FIELD: opening global file: T0_2160x540x100.bin
(PID.TID 0000.0001)  MDS_READ_FIELD: opening global file: S0_2160x540x100.bin
(PID.TID 0000.0001) Start initial hydrostatic pressure computation
(PID.TID 0000.0001) Pressure is predetermined for buoyancyRelation OCEANIC
(PID.TID 0000.0001) 
(PID.TID 0000.0001)  write diagnostics summary to file ioUnit:      6
Iter.Nb:         0 ; Time(s):  0.0000000000000E+00
------------------------------------------------------------------------
2D/3D diagnostics: Number of lists:     2
------------------------------------------------------------------------
listId=    1 ; file name: diags/surface
 nFlds, nActive,       freq     &     phase        , nLev               
    5  |    5  |      3600.000000         0.000000 |   1
 levels:   1
 diag# | name   |   ipt  |  iMate | kLev|   count |   mate.C|           
    23 |ETAN    |      1 |      0 |   1 |       0 |
    80 |oceTAUX |      2 |      3 |   1 |       0 |       0 |
    81 |oceTAUY |      3 |      2 |   1 |       0 |       0 |
   185 |EXFuwind|      4 |      0 |   1 |       0 |
   186 |EXFvwind|      5 |      0 |   1 |       0 |
------------------------------------------------------------------------
listId=    2 ; file name: diags/interior
 nFlds, nActive,       freq     &     phase        , nLev               
    9  |    9  |   2592000.000000         0.000000 | 100
 levels:   1   2   3   4   5   6   7   8   9  10  11  12  13  14  15  16  17  18  19  20  21  22  23  24  25
 levels:  26  27  28  29  30  31  32  33  34  35  36  37  38  39  40  41  42  43  44  45  46  47  48  49  50
 levels:  51  52  53  54  55  56  57  58  59  60  61  62  63  64  65  66  67  68  69  70  71  72  73  74  75
 levels:  76  77  78  79  80  81  82  83  84  85  86  87  88  89  90  91  92  93  94  95  96  97  98  99 100
 diag# | name   |   ipt  |  iMate | kLev|   count |   mate.C|           
    26 |THETA   |      6 |      0 | 100 |       0 |
    27 |SALT    |    106 |      0 | 100 |       0 |
    30 |UVEL    |    206 |    306 | 100 |       0 |       0 |
    31 |VVEL    |    306 |    206 | 100 |       0 |       0 |
    32 |WVEL    |    406 |      0 | 100 |       0 |
    36 |UVELSQ  |    506 |    606 | 100 |       0 |       0 |
    37 |VVELSQ  |    606 |    506 | 100 |       0 |       0 |
    52 |WTHMASS |    706 |      0 | 100 |       0 |
    55 |WSLTMASS|    806 |      0 | 100 |       0 |
------------------------------------------------------------------------
Global & Regional Statistics diagnostics: Number of lists:     0
------------------------------------------------------------------------
(PID.TID 0000.0001)  MDS_READ_SEC_XZ: opening global file: OBNam_2160x13.bin
(PID.TID 0000.0001)  MDS_READ_SEC_XZ: opening global file: OBNph_2160x13.bin
(PID.TID 0000.0001)  MDS_READ_SEC_XZ: opening global file: OBSam_2160x13.bin
(PID.TID 0000.0001)  MDS_READ_SEC_XZ: opening global file: OBSph_2160x13.bin
(PID.TID 0000.0001)  MDS_READ_SEC_XZ: opening global file: OBNu_2160x100x26.bin
(PID.TID 0000.0001)  MDS_READ_SEC_XZ: opening global file: OBNu_2160x100x26.bin
(PID.TID 0000.0001)  MDS_READ_SEC_XZ: opening global file: OBNv_2160x100x26.bin
(PID.TID 0000.0001)  MDS_READ_SEC_XZ: opening global file: OBNv_2160x100x26.bin
(PID.TID 0000.0001)  MDS_READ_SEC_XZ: opening global file: OBNt_2160x100x26.bin
(PID.TID 0000.0001)  MDS_READ_SEC_XZ: opening global file: OBNt_2160x100x26.bin
(PID.TID 0000.0001)  MDS_READ_SEC_XZ: opening global file: OBNs_2160x100x26.bin
(PID.TID 0000.0001)  MDS_READ_SEC_XZ: opening global file: OBNs_2160x100x26.bin
(PID.TID 0000.0001)  MDS_READ_SEC_XZ: opening global file: OBSu_2160x100x26.bin
(PID.TID 0000.0001)  MDS_READ_SEC_XZ: opening global file: OBSu_2160x100x26.bin
(PID.TID 0000.0001)  MDS_READ_SEC_XZ: opening global file: OBSv_2160x100x26.bin
(PID.TID 0000.0001)  MDS_READ_SEC_XZ: opening global file: OBSv_2160x100x26.bin
(PID.TID 0000.0001)  MDS_READ_SEC_XZ: opening global file: OBSt_2160x100x26.bin
(PID.TID 0000.0001)  MDS_READ_SEC_XZ: opening global file: OBSt_2160x100x26.bin
(PID.TID 0000.0001)  MDS_READ_SEC_XZ: opening global file: OBSs_2160x100x26.bin
(PID.TID 0000.0001)  MDS_READ_SEC_XZ: opening global file: OBSs_2160x100x26.bin
(PID.TID 0000.0001) // =======================================================
(PID.TID 0000.0001) // Model current state
(PID.TID 0000.0001) // =======================================================
(PID.TID 0000.0001) 
(PID.TID 0000.0001) // =======================================================
(PID.TID 0000.0001) // Begin MONITOR dynamic field statistics
(PID.TID 0000.0001) // =======================================================
(PID.TID 0000.0001) %MON time_tsnumber                =                     0
(PID.TID 0000.0001) %MON time_secondsf                =   0.0000000000000E+00
(PID.TID 0000.0001) %MON dynstat_eta_max              =   0.0000000000000E+00
(PID.TID 0000.0001) %MON dynstat_eta_min              =   0.0000000000000E+00
(PID.TID 0000.0001) %MON dynstat_eta_mean             =   0.0000000000000E+00
(PID.TID 0000.0001) %MON dynstat_eta_sd               =   0.0000000000000E+00
(PID.TID 0000.0001) %MON dynstat_eta_del2             =   0.0000000000000E+00
(PID.TID 0000.0001) %MON dynstat_uvel_max             =   1.2655940055847E+00
(PID.TID 0000.0001) %MON dynstat_uvel_min             =  -6.7179697751999E-01
(PID.TID 0000.0001) %MON dynstat_uvel_mean            =   3.8933782453988E-03
(PID.TID 0000.0001) %MON dynstat_uvel_sd              =   5.2086469330268E-02
(PID.TID 0000.0001) %MON dynstat_uvel_del2            =   3.0019794494422E-07
(PID.TID 0000.0001) %MON dynstat_vvel_max             =   1.8766679377822E+00
(PID.TID 0000.0001) %MON dynstat_vvel_min             =  -8.8630950450897E-01
(PID.TID 0000.0001) %MON dynstat_vvel_mean            =  -1.8315008085781E-04
(PID.TID 0000.0001) %MON dynstat_vvel_sd              =   4.8401112616991E-02
(PID.TID 0000.0001) %MON dynstat_vvel_del2            =   3.9531900049683E-07
(PID.TID 0000.0001) %MON dynstat_wvel_max             =   8.0878572016153E-02
(PID.TID 0000.0001) %MON dynstat_wvel_min             =  -1.0644865410817E-01
(PID.TID 0000.0001) %MON dynstat_wvel_mean            =  -1.8564800099859E-06
(PID.TID 0000.0001) %MON dynstat_wvel_sd              =   1.3360682389456E-03
(PID.TID 0000.0001) %MON dynstat_wvel_del2            =   3.7531921664199E-07
(PID.TID 0000.0001) %MON dynstat_theta_max            =   2.6144617080688E+01
(PID.TID 0000.0001) %MON dynstat_theta_min            =   1.4688636064529E+00
(PID.TID 0000.0001) %MON dynstat_theta_mean           =   5.5098811020494E+00
(PID.TID 0000.0001) %MON dynstat_theta_sd             =   4.7735348546542E+00
(PID.TID 0000.0001) %MON dynstat_theta_del2           =   4.0189244228695E-06
(PID.TID 0000.0001) %MON dynstat_salt_max             =   3.9185241699219E+01
(PID.TID 0000.0001) %MON dynstat_salt_min             =   3.3089591979980E+01
(PID.TID 0000.0001) %MON dynstat_salt_mean            =   3.5173374558496E+01
(PID.TID 0000.0001) %MON dynstat_salt_sd              =   3.7891790794924E-01
(PID.TID 0000.0001) %MON dynstat_salt_del2            =   4.9655867703385E-07
(PID.TID 0000.0001) %MON dynstat_sst_max              =   2.6144517898560E+01
(PID.TID 0000.0001) %MON dynstat_sst_min              =   4.0907053947449E+00
(PID.TID 0000.0001) %MON dynstat_sst_mean             =   1.9650344179206E+01
(PID.TID 0000.0001) %MON dynstat_sst_sd               =   3.6388127143234E+00
(PID.TID 0000.0001) %MON dynstat_sst_del2             =   1.9236263370514E-05
(PID.TID 0000.0001) %MON dynstat_sss_max              =   3.7335128784180E+01
(PID.TID 0000.0001) %MON dynstat_sss_min              =   3.3089591979980E+01
(PID.TID 0000.0001) %MON dynstat_sss_mean             =   3.5867950426451E+01
(PID.TID 0000.0001) %MON dynstat_sss_sd               =   4.8717343265566E-01
(PID.TID 0000.0001) %MON dynstat_sss_del2             =   5.0430181870384E-06
(PID.TID 0000.0001) %MON forcing_qnet_max             =   0.0000000000000E+00
(PID.TID 0000.0001) %MON forcing_qnet_min             =   0.0000000000000E+00
(PID.TID 0000.0001) %MON forcing_qnet_mean            =   0.0000000000000E+00
(PID.TID 0000.0001) %MON forcing_qnet_sd              =   0.0000000000000E+00
(PID.TID 0000.0001) %MON forcing_qnet_del2            =   0.0000000000000E+00
(PID.TID 0000.0001) %MON forcing_qsw_max              =   0.0000000000000E+00
(PID.TID 0000.0001) %MON forcing_qsw_min              =   0.0000000000000E+00
(PID.TID 0000.0001) %MON forcing_qsw_mean             =   0.0000000000000E+00
(PID.TID 0000.0001) %MON forcing_qsw_sd               =   0.0000000000000E+00
(PID.TID 0000.0001) %MON forcing_qsw_del2             =   0.0000000000000E+00
(PID.TID 0000.0001) %MON forcing_empmr_max            =   0.0000000000000E+00
(PID.TID 0000.0001) %MON forcing_empmr_min            =   0.0000000000000E+00
(PID.TID 0000.0001) %MON forcing_empmr_mean           =   0.0000000000000E+00
(PID.TID 0000.0001) %MON forcing_empmr_sd             =   0.0000000000000E+00
(PID.TID 0000.0001) %MON forcing_empmr_del2           =   0.0000000000000E+00
(PID.TID 0000.0001) %MON forcing_fu_max               =   0.0000000000000E+00
(PID.TID 0000.0001) %MON forcing_fu_min               =   0.0000000000000E+00
(PID.TID 0000.0001) %MON forcing_fu_mean              =   0.0000000000000E+00
(PID.TID 0000.0001) %MON forcing_fu_sd                =   0.0000000000000E+00
(PID.TID 0000.0001) %MON forcing_fu_del2              =   0.0000000000000E+00
(PID.TID 0000.0001) %MON forcing_fv_max               =   0.0000000000000E+00
(PID.TID 0000.0001) %MON forcing_fv_min               =   0.0000000000000E+00
(PID.TID 0000.0001) %MON forcing_fv_mean              =   0.0000000000000E+00
(PID.TID 0000.0001) %MON forcing_fv_sd                =   0.0000000000000E+00
(PID.TID 0000.0001) %MON forcing_fv_del2              =   0.0000000000000E+00
(PID.TID 0000.0001) %MON trAdv_CFL_u_max              =   0.0000000000000E+00
(PID.TID 0000.0001) %MON trAdv_CFL_v_max              =   0.0000000000000E+00
(PID.TID 0000.0001) %MON trAdv_CFL_w_max              =   0.0000000000000E+00
(PID.TID 0000.0001) %MON advcfl_uvel_max              =   7.6757822680034E-02
(PID.TID 0000.0001) %MON advcfl_vvel_max              =   1.1860877864772E-01
(PID.TID 0000.0001) %MON advcfl_wvel_max              =   1.0219070794384E+01
(PID.TID 0000.0001) %MON advcfl_W_hf_max              =   5.0990576573765E+00
(PID.TID 0000.0001) %MON pe_b_mean                    =   0.0000000000000E+00
(PID.TID 0000.0001) %MON ke_max                       =   1.6014653258787E+00
(PID.TID 0000.0001) %MON ke_mean                      =   2.5166672230983E-03
(PID.TID 0000.0001) %MON ke_vol                       =   4.5818637279720E+16
(PID.TID 0000.0001) %MON vort_r_min                   =  -2.7112786765354E-04
(PID.TID 0000.0001) %MON vort_r_max                   =   4.5284213837033E-04
(PID.TID 0000.0001) %MON vort_a_mean                  =   8.2147631506710E-05
(PID.TID 0000.0001) %MON vort_a_sd                    =   1.0110316133288E-05
(PID.TID 0000.0001) %MON vort_p_mean                  =   8.4848853092653E-05
(PID.TID 0000.0001) %MON vort_p_sd                    =   3.4983760879124E-05
(PID.TID 0000.0001) %MON surfExpan_theta_mean         =   2.0592395504451E-05
(PID.TID 0000.0001) %MON surfExpan_salt_mean          =  -1.7210634086920E-04
(PID.TID 0000.0001) // =======================================================
(PID.TID 0000.0001) // End MONITOR dynamic field statistics
(PID.TID 0000.0001) // =======================================================
(PID.TID 0000.0001) // =======================================================
(PID.TID 0000.0001) // Begin OBCS MONITOR field statistics
(PID.TID 0000.0001) // =======================================================
(PID.TID 0000.0001) %MON obc_N_vVel_max               =   6.9579085314553E-01
(PID.TID 0000.0001) %MON obc_N_vVel_min               =  -3.2183263391360E-01
(PID.TID 0000.0001) %MON obc_N_vVel_mean              =   1.3107185862961E-02
(PID.TID 0000.0001) %MON obc_N_vVel_sd                =   6.4693829583860E-02
(PID.TID 0000.0001) %MON obc_N_vVel_Int               =   1.8763047269621E+08
(PID.TID 0000.0001) %MON obc_S_vVel_max               =   1.8766679377822E+00
(PID.TID 0000.0001) %MON obc_S_vVel_min               =  -2.6178254188100E-01
(PID.TID 0000.0001) %MON obc_S_vVel_mean              =   4.1390867252904E-03
(PID.TID 0000.0001) %MON obc_S_vVel_sd                =   3.5756336765240E-02
(PID.TID 0000.0001) %MON obc_S_vVel_Int               =   1.2600580191554E+08
(PID.TID 0000.0001) %MON obc_N_theta_max              =   1.6390861045164E+01
(PID.TID 0000.0001) %MON obc_N_theta_min              =   1.8895907269856E+00
(PID.TID 0000.0001) %MON obc_N_theta_mean             =   5.1589805018888E+00
(PID.TID 0000.0001) %MON obc_N_theta_sd               =   3.4827339404776E+00
(PID.TID 0000.0001) %MON obc_S_theta_max              =   2.5544941308807E+01
(PID.TID 0000.0001) %MON obc_S_theta_min              =   1.4632956408867E+00
(PID.TID 0000.0001) %MON obc_S_theta_mean             =   5.4595577802114E+00
(PID.TID 0000.0001) %MON obc_S_theta_sd               =   5.3559370357223E+00
(PID.TID 0000.0001) %MON obc_N_salt_max               =   3.5910867647958E+01
(PID.TID 0000.0001) %MON obc_N_salt_min               =   3.3295014070045E+01
(PID.TID 0000.0001) %MON obc_N_salt_mean              =   3.5114564316350E+01
(PID.TID 0000.0001) %MON obc_N_salt_sd                =   3.0984932953669E-01
(PID.TID 0000.0001) %MON obc_S_salt_max               =   3.7318346630621E+01
(PID.TID 0000.0001) %MON obc_S_salt_min               =   3.4844694313817E+01
(PID.TID 0000.0001) %MON obc_S_salt_mean              =   3.5168372938834E+01
(PID.TID 0000.0001) %MON obc_S_salt_sd                =   4.5717110794259E-01
(PID.TID 0000.0001) // =======================================================
(PID.TID 0000.0001) // End OBCS MONITOR field statistics
(PID.TID 0000.0001) // =======================================================
(PID.TID 0000.0001)  EXF_INTERP_READ: opening file: jra55/jra55_u10m_2008
(PID.TID 0000.0001)  EXF_INTERP_READ: opening file: jra55/jra55_v10m_2008
(PID.TID 0000.0001)  EXF_INTERP_UV: fileU="jra55/jra55_u10m_2008", rec=     1 , x-Per,P.Sym=    T    T
(PID.TID 0000.0001)  S.edge (j=-1,0,1) : proc= 2.2 1.1 0.0, yIn=  -90.429910  -90.000000  -89.570090
(PID.TID 0000.0001)  N.edge (j=+0,+1,+2) proc= 0.0 1.1 2.2, yIn=   89.570063   90.000000   90.429937
(PID.TID 0000.0001)  EXF_INTERP_READ: opening file: jra55/jra55_u10m_2008
(PID.TID 0000.0001)  EXF_INTERP_READ: opening file: jra55/jra55_v10m_2008
(PID.TID 0000.0001)  EXF_INTERP_UV: fileU="jra55/jra55_u10m_2008", rec=     2 , x-Per,P.Sym=    T    T
(PID.TID 0000.0001)  S.edge (j=-1,0,1) : proc= 2.2 1.1 0.0, yIn=  -90.429910  -90.000000  -89.570090
(PID.TID 0000.0001)  N.edge (j=+0,+1,+2) proc= 0.0 1.1 2.2, yIn=   89.570063   90.000000   90.429937
(PID.TID 0000.0001)  EXF_INTERP_READ: opening file: jra55/jra55_tmp2m_degC_2008
(PID.TID 0000.0001)  EXF_INTERP: file="jra55/jra55_tmp2m_degC_2008", rec=     1 , x-Per,P.Sym=    T    T
(PID.TID 0000.0001)  S.edge (j=-1,0,1) : proc= 2.2 1.1 0.0, yIn=  -90.429910  -90.000000  -89.570090
(PID.TID 0000.0001)  N.edge (j=+0,+1,+2) proc= 0.0 1.1 2.2, yIn=   89.570063   90.000000   90.429937
(PID.TID 0000.0001)  EXF_INTERP_READ: opening file: jra55/jra55_tmp2m_degC_2008
(PID.TID 0000.0001)  EXF_INTERP: file="jra55/jra55_tmp2m_degC_2008", rec=     2 , x-Per,P.Sym=    T    T
(PID.TID 0000.0001)  S.edge (j=-1,0,1) : proc= 2.2 1.1 0.0, yIn=  -90.429910  -90.000000  -89.570090
(PID.TID 0000.0001)  N.edge (j=+0,+1,+2) proc= 0.0 1.1 2.2, yIn=   89.570063   90.000000   90.429937
(PID.TID 0000.0001)  EXF_INTERP_READ: opening file: jra55/jra55_spfh2m_2008
(PID.TID 0000.0001)  EXF_INTERP: file="jra55/jra55_spfh2m_2008", rec=     1 , x-Per,P.Sym=    T    T
(PID.TID 0000.0001)  S.edge (j=-1,0,1) : proc= 2.2 1.1 0.0, yIn=  -90.429910  -90.000000  -89.570090
(PID.TID 0000.0001)  N.edge (j=+0,+1,+2) proc= 0.0 1.1 2.2, yIn=   89.570063   90.000000   90.429937
(PID.TID 0000.0001)  EXF_INTERP_READ: opening file: jra55/jra55_spfh2m_2008
(PID.TID 0000.0001)  EXF_INTERP: file="jra55/jra55_spfh2m_2008", rec=     2 , x-Per,P.Sym=    T    T
(PID.TID 0000.0001)  S.edge (j=-1,0,1) : proc= 2.2 1.1 0.0, yIn=  -90.429910  -90.000000  -89.570090
(PID.TID 0000.0001)  N.edge (j=+0,+1,+2) proc= 0.0 1.1 2.2, yIn=   89.570063   90.000000   90.429937
(PID.TID 0000.0001)  EXF_INTERP_READ: opening file: jra55/jra55_rain_2007
(PID.TID 0000.0001)  EXF_INTERP: file="jra55/jra55_rain_2007", rec=  2920 , x-Per,P.Sym=    T    T
(PID.TID 0000.0001)  S.edge (j=-1,0,1) : proc= 2.2 1.1 0.0, yIn=  -90.429910  -90.000000  -89.570090
(PID.TID 0000.0001)  N.edge (j=+0,+1,+2) proc= 0.0 1.1 2.2, yIn=   89.570063   90.000000   90.429937
(PID.TID 0000.0001)  EXF_INTERP_READ: opening file: jra55/jra55_rain_2008
(PID.TID 0000.0001)  EXF_INTERP: file="jra55/jra55_rain_2008", rec=     1 , x-Per,P.Sym=    T    T
(PID.TID 0000.0001)  S.edge (j=-1,0,1) : proc= 2.2 1.1 0.0, yIn=  -90.429910  -90.000000  -89.570090
(PID.TID 0000.0001)  N.edge (j=+0,+1,+2) proc= 0.0 1.1 2.2, yIn=   89.570063   90.000000   90.429937
(PID.TID 0000.0001)  EXF_INTERP_READ: opening file: jra55/jra55_dsw_2007
(PID.TID 0000.0001)  EXF_INTERP: file="jra55/jra55_dsw_2007", rec=  2920 , x-Per,P.Sym=    T    T
(PID.TID 0000.0001)  S.edge (j=-1,0,1) : proc= 2.2 1.1 0.0, yIn=  -90.429910  -90.000000  -89.570090
(PID.TID 0000.0001)  N.edge (j=+0,+1,+2) proc= 0.0 1.1 2.2, yIn=   89.570063   90.000000   90.429937
(PID.TID 0000.0001)  EXF_INTERP_READ: opening file: jra55/jra55_dsw_2008
(PID.TID 0000.0001)  EXF_INTERP: file="jra55/jra55_dsw_2008", rec=     1 , x-Per,P.Sym=    T    T
(PID.TID 0000.0001)  S.edge (j=-1,0,1) : proc= 2.2 1.1 0.0, yIn=  -90.429910  -90.000000  -89.570090
(PID.TID 0000.0001)  N.edge (j=+0,+1,+2) proc= 0.0 1.1 2.2, yIn=   89.570063   90.000000   90.429937
(PID.TID 0000.0001)  EXF_INTERP_READ: opening file: jra55/jra55_dlw_2007
(PID.TID 0000.0001)  EXF_INTERP: file="jra55/jra55_dlw_2007", rec=  2920 , x-Per,P.Sym=    T    T
(PID.TID 0000.0001)  S.edge (j=-1,0,1) : proc= 2.2 1.1 0.0, yIn=  -90.429910  -90.000000  -89.570090
(PID.TID 0000.0001)  N.edge (j=+0,+1,+2) proc= 0.0 1.1 2.2, yIn=   89.570063   90.000000   90.429937
(PID.TID 0000.0001)  EXF_INTERP_READ: opening file: jra55/jra55_dlw_2008
(PID.TID 0000.0001)  EXF_INTERP: file="jra55/jra55_dlw_2008", rec=     1 , x-Per,P.Sym=    T    T
(PID.TID 0000.0001)  S.edge (j=-1,0,1) : proc= 2.2 1.1 0.0, yIn=  -90.429910  -90.000000  -89.570090
(PID.TID 0000.0001)  N.edge (j=+0,+1,+2) proc= 0.0 1.1 2.2, yIn=   89.570063   90.000000   90.429937
(PID.TID 0000.0001)  EXF_INTERP_READ: opening file: jra55/jra55_pres_2008
(PID.TID 0000.0001)  EXF_INTERP: file="jra55/jra55_pres_2008", rec=     1 , x-Per,P.Sym=    T    T
(PID.TID 0000.0001)  S.edge (j=-1,0,1) : proc= 2.2 1.1 0.0, yIn=  -90.429910  -90.000000  -89.570090
(PID.TID 0000.0001)  N.edge (j=+0,+1,+2) proc= 0.0 1.1 2.2, yIn=   89.570063   90.000000   90.429937
(PID.TID 0000.0001)  EXF_INTERP_READ: opening file: jra55/jra55_pres_2008
(PID.TID 0000.0001)  EXF_INTERP: file="jra55/jra55_pres_2008", rec=     2 , x-Per,P.Sym=    T    T
(PID.TID 0000.0001)  S.edge (j=-1,0,1) : proc= 2.2 1.1 0.0, yIn=  -90.429910  -90.000000  -89.570090
(PID.TID 0000.0001)  N.edge (j=+0,+1,+2) proc= 0.0 1.1 2.2, yIn=   89.570063   90.000000   90.429937
(PID.TID 0000.0001)  EXF_INTERP_READ: opening file: tide_2008
(PID.TID 0000.0001)  EXF_INTERP: file="tide_2008", rec=     1 , x-Per,P.Sym=    T    T
(PID.TID 0000.0001)  S.edge (j=-1,0,1) : proc= 0.2 0.2 0.1, yIn=  -92.000000  -91.000000  -90.000000
(PID.TID 0000.0001)  N.edge (j=+0,+1,+2) proc= 0.1 0.2 0.2, yIn=   90.000000   91.000000   92.000000
(PID.TID 0000.0001)  EXF_INTERP_READ: opening file: tide_2008
(PID.TID 0000.0001)  EXF_INTERP: file="tide_2008", rec=     2 , x-Per,P.Sym=    T    T
(PID.TID 0000.0001)  S.edge (j=-1,0,1) : proc= 0.2 0.2 0.1, yIn=  -92.000000  -91.000000  -90.000000
(PID.TID 0000.0001)  N.edge (j=+0,+1,+2) proc= 0.1 0.2 0.2, yIn=   90.000000   91.000000   92.000000
(PID.TID 0000.0001)  EXF_INTERP_READ: opening file: runoff1p2472-360x180x12.bin
(PID.TID 0000.0001)  EXF_INTERP: file="runoff1p2472-360x180x12.bin", rec=    12 , x-Per,P.Sym=    T    T
(PID.TID 0000.0001)  S.edge (j=-1,0,1) : proc= 2.2 1.1 0.0, yIn=  -90.500000  -90.000000  -89.500000
(PID.TID 0000.0001)  N.edge (j=+0,+1,+2) proc= 0.0 1.1 2.2, yIn=   89.500000   90.000000   90.500000
(PID.TID 0000.0001)  EXF_INTERP_READ: opening file: runoff1p2472-360x180x12.bin
(PID.TID 0000.0001)  EXF_INTERP: file="runoff1p2472-360x180x12.bin", rec=     1 , x-Per,P.Sym=    T    T
(PID.TID 0000.0001)  S.edge (j=-1,0,1) : proc= 2.2 1.1 0.0, yIn=  -90.500000  -90.000000  -89.500000
(PID.TID 0000.0001)  N.edge (j=+0,+1,+2) proc= 0.0 1.1 2.2, yIn=   89.500000   90.000000   90.500000
(PID.TID 0000.0001) // =======================================================
(PID.TID 0000.0001) // Begin MONITOR EXF statistics
(PID.TID 0000.0001) // =======================================================
(PID.TID 0000.0001) %MON exf_tsnumber                 =                     0
(PID.TID 0000.0001) %MON exf_time_sec                 =   0.0000000000000E+00
(PID.TID 0000.0001) %MON exf_ustress_max              =   1.2042248010216E+00
(PID.TID 0000.0001) %MON exf_ustress_min              =  -4.2348385322512E-01
(PID.TID 0000.0001) %MON exf_ustress_mean             =   7.3484100992906E-02
(PID.TID 0000.0001) %MON exf_ustress_sd               =   1.7335907631852E-01
(PID.TID 0000.0001) %MON exf_ustress_del2             =   2.8174079103584E-07
(PID.TID 0000.0001) %MON exf_vstress_max              =   5.4451768961480E-01
(PID.TID 0000.0001) %MON exf_vstress_min              =  -5.0274810453237E-01
(PID.TID 0000.0001) %MON exf_vstress_mean             =   2.1518467277902E-02
(PID.TID 0000.0001) %MON exf_vstress_sd               =   1.2156884345961E-01
(PID.TID 0000.0001) %MON exf_vstress_del2             =   2.3618545895939E-07
(PID.TID 0000.0001) %MON exf_hflux_max                =   1.1704468594159E+03
(PID.TID 0000.0001) %MON exf_hflux_min                =  -3.1894837988416E+02
(PID.TID 0000.0001) %MON exf_hflux_mean               =   2.2226422306270E+02
(PID.TID 0000.0001) %MON exf_hflux_sd                 =   1.5232355838096E+02
(PID.TID 0000.0001) %MON exf_hflux_del2               =   6.0902761173141E-02
(PID.TID 0000.0001) %MON exf_sflux_max                =   2.4803769087663E-07
(PID.TID 0000.0001) %MON exf_sflux_min                =  -8.3952561058255E-07
(PID.TID 0000.0001) %MON exf_sflux_mean               =   1.5732176877304E-08
(PID.TID 0000.0001) %MON exf_sflux_sd                 =   1.1224989931413E-07
(PID.TID 0000.0001) %MON exf_sflux_del2               =   2.5790646530904E-11
(PID.TID 0000.0001) %MON exf_uwind_max                =   2.2038270850522E+01
(PID.TID 0000.0001) %MON exf_uwind_min                =  -1.4330188439561E+01
(PID.TID 0000.0001) %MON exf_uwind_mean               =   2.7053186485595E+00
(PID.TID 0000.0001) %MON exf_uwind_sd                 =   6.7660726161266E+00
(PID.TID 0000.0001) %MON exf_uwind_del2               =   1.6251846612232E-03
(PID.TID 0000.0001) %MON exf_vwind_max                =   1.5980941714227E+01
(PID.TID 0000.0001) %MON exf_vwind_min                =  -1.3059954636962E+01
(PID.TID 0000.0001) %MON exf_vwind_mean               =   1.1010883874839E+00
(PID.TID 0000.0001) %MON exf_vwind_sd                 =   5.6833616003188E+00
(PID.TID 0000.0001) %MON exf_vwind_del2               =   1.3013155550229E-03
(PID.TID 0000.0001) %MON exf_wspeed_max               =   2.2837301340580E+01
(PID.TID 0000.0001) %MON exf_wspeed_min               =   6.2530824734068E-03
(PID.TID 0000.0001) %MON exf_wspeed_mean              =   8.1104426282453E+00
(PID.TID 0000.0001) %MON exf_wspeed_sd                =   4.5642307925775E+00
(PID.TID 0000.0001) %MON exf_wspeed_del2              =   2.0818162237572E-03
(PID.TID 0000.0001) %MON exf_atemp_max                =   2.9787581471662E+02
(PID.TID 0000.0001) %MON exf_atemp_min                =   2.7477711675925E+02
(PID.TID 0000.0001) %MON exf_atemp_mean               =   2.9106236187499E+02
(PID.TID 0000.0001) %MON exf_atemp_sd                 =   3.9563282933446E+00
(PID.TID 0000.0001) %MON exf_atemp_del2               =   3.9595689528052E-03
(PID.TID 0000.0001) %MON exf_aqh_max                  =   1.5824321551012E-02
(PID.TID 0000.0001) %MON exf_aqh_min                  =   2.7165196369521E-03
(PID.TID 0000.0001) %MON exf_aqh_mean                 =   1.0102313904352E-02
(PID.TID 0000.0001) %MON exf_aqh_sd                   =   2.6036666446998E-03
(PID.TID 0000.0001) %MON exf_aqh_del2                 =   2.2635128661203E-06
(PID.TID 0000.0001) %MON exf_lwflux_max               =   1.6301804878883E+02
(PID.TID 0000.0001) %MON exf_lwflux_min               =  -2.8994871463719E+01
(PID.TID 0000.0001) %MON exf_lwflux_mean              =   6.9491290451846E+01
(PID.TID 0000.0001) %MON exf_lwflux_sd                =   2.7176102818665E+01
(PID.TID 0000.0001) %MON exf_lwflux_del2              =   1.6296320645063E-02
(PID.TID 0000.0001) %MON exf_evap_max                 =   2.7246796371066E-07
(PID.TID 0000.0001) %MON exf_evap_min                 =  -9.0601797790032E-08
(PID.TID 0000.0001) %MON exf_evap_mean                =   5.1762385084025E-08
(PID.TID 0000.0001) %MON exf_evap_sd                  =   3.9078626828492E-08
(PID.TID 0000.0001) %MON exf_evap_del2                =   1.4613857964794E-11
(PID.TID 0000.0001) %MON exf_precip_max               =   8.2535981206619E-07
(PID.TID 0000.0001) %MON exf_precip_min               =   0.0000000000000E+00
(PID.TID 0000.0001) %MON exf_precip_mean              =   3.4441728634731E-08
(PID.TID 0000.0001) %MON exf_precip_sd                =   9.7968478165069E-08
(PID.TID 0000.0001) %MON exf_precip_del2              =   2.3809256626174E-11
(PID.TID 0000.0001) %MON exf_swflux_max               =   0.0000000000000E+00
(PID.TID 0000.0001) %MON exf_swflux_min               =  -2.6065376021776E+01
(PID.TID 0000.0001) %MON exf_swflux_mean              =  -8.2651682550329E-01
(PID.TID 0000.0001) %MON exf_swflux_sd                =   2.6778487776596E+00
(PID.TID 0000.0001) %MON exf_swflux_del2              =   5.3860746720854E-04
(PID.TID 0000.0001) %MON exf_swdown_max               =   2.8961528913084E+01
(PID.TID 0000.0001) %MON exf_swdown_min               =   0.0000000000000E+00
(PID.TID 0000.0001) %MON exf_swdown_mean              =   9.1835202833699E-01
(PID.TID 0000.0001) %MON exf_swdown_sd                =   2.9753875307329E+00
(PID.TID 0000.0001) %MON exf_swdown_del2              =   5.9845274134282E-04
(PID.TID 0000.0001) %MON exf_lwdown_max               =   4.0741996886028E+02
(PID.TID 0000.0001) %MON exf_lwdown_min               =   2.2943962696487E+02
(PID.TID 0000.0001) %MON exf_lwdown_mean              =   3.4548798428685E+02
(PID.TID 0000.0001) %MON exf_lwdown_sd                =   3.1277137486441E+01
(PID.TID 0000.0001) %MON exf_lwdown_del2              =   7.5713900799977E-02
(PID.TID 0000.0001) %MON exf_apressure_max            =   1.0277535584976E+05
(PID.TID 0000.0001) %MON exf_apressure_min            =   9.9919222602153E+04
(PID.TID 0000.0001) %MON exf_apressure_mean           =   1.0213304968908E+05
(PID.TID 0000.0001) %MON exf_apressure_sd             =   5.1316880993555E+02
(PID.TID 0000.0001) %MON exf_apressure_del2           =   2.2349777822573E+01
(PID.TID 0000.0001) %MON exf_runoff_max               =   4.4374798712073E-08
(PID.TID 0000.0001) %MON exf_runoff_min               =   0.0000000000000E+00
(PID.TID 0000.0001) %MON exf_runoff_mean              =   1.5884795719908E-09
(PID.TID 0000.0001) %MON exf_runoff_sd                =   5.3901959599983E-09
(PID.TID 0000.0001) %MON exf_runoff_del2              =   1.2741189756369E-12
(PID.TID 0000.0001) // =======================================================
(PID.TID 0000.0001) // End MONITOR EXF statistics
(PID.TID 0000.0001) // =======================================================
(PID.TID 0000.0001) SOLVE_FOR_PRESSURE: putPmEinXvector =    F
 cg2d: Sum(rhs),rhsMax =   5.26806012293017E+01  2.94675553788503E-01
(PID.TID 0000.0001)      cg2d_init_res =   1.55185541685640E+01
(PID.TID 0000.0001)      cg2d_iters(min,last) =      -1     326
(PID.TID 0000.0001)      cg2d_last_res =   6.96288924210286E-12
(PID.TID 0000.0001) // =======================================================
(PID.TID 0000.0001) // Begin MONITOR dynamic field statistics
(PID.TID 0000.0001) // =======================================================
(PID.TID 0000.0001) %MON time_tsnumber                =                     1
(PID.TID 0000.0001) %MON time_secondsf                =   2.4000000000000E+02
(PID.TID 0000.0001) %MON dynstat_eta_max              =   9.9413831831106E-01
(PID.TID 0000.0001) %MON dynstat_eta_min              =  -1.3585646686008E+00
(PID.TID 0000.0001) %MON dynstat_eta_mean             =  -1.7915145317381E-03
(PID.TID 0000.0001) %MON dynstat_eta_sd               =   6.5870970392908E-02
(PID.TID 0000.0001) %MON dynstat_eta_del2             =   7.8011334926403E-06
(PID.TID 0000.0001) %MON dynstat_uvel_max             =   1.2722181232543E+00
(PID.TID 0000.0001) %MON dynstat_uvel_min             =  -6.9989057631023E-01
(PID.TID 0000.0001) %MON dynstat_uvel_mean            =   3.8471938130761E-03
(PID.TID 0000.0001) %MON dynstat_uvel_sd              =   5.2156037799316E-02
(PID.TID 0000.0001) %MON dynstat_uvel_del2            =   4.4022373015103E-07
(PID.TID 0000.0001) %MON dynstat_vvel_max             =   1.8944082266793E+00
(PID.TID 0000.0001) %MON dynstat_vvel_min             =  -8.8784979581850E-01
(PID.TID 0000.0001) %MON dynstat_vvel_mean            =  -6.7885203343115E-04
(PID.TID 0000.0001) %MON dynstat_vvel_sd              =   4.8186199066563E-02
(PID.TID 0000.0001) %MON dynstat_vvel_del2            =   4.1704882612851E-07
(PID.TID 0000.0001) %MON dynstat_wvel_max             =   3.6296652465035E-02
(PID.TID 0000.0001) %MON dynstat_wvel_min             =  -3.3449486774463E-02
(PID.TID 0000.0001) %MON dynstat_wvel_mean            =  -3.0884693882598E-06
(PID.TID 0000.0001) %MON dynstat_wvel_sd              =   5.9798883689654E-04
(PID.TID 0000.0001) %MON dynstat_wvel_del2            =   9.0649382810538E-08
(PID.TID 0000.0001) %MON dynstat_theta_max            =   2.6141575896032E+01
(PID.TID 0000.0001) %MON dynstat_theta_min            =   1.4688636747375E+00
(PID.TID 0000.0001) %MON dynstat_theta_mean           =   5.5098722399142E+00
(PID.TID 0000.0001) %MON dynstat_theta_sd             =   4.7735075625321E+00
(PID.TID 0000.0001) %MON dynstat_theta_del2           =   4.0095263897467E-06
(PID.TID 0000.0001) %MON dynstat_salt_max             =   3.9184250187459E+01
(PID.TID 0000.0001) %MON dynstat_salt_min             =   3.3090310167836E+01
(PID.TID 0000.0001) %MON dynstat_salt_mean            =   3.5173372971116E+01
(PID.TID 0000.0001) %MON dynstat_salt_sd              =   3.7891598360094E-01
(PID.TID 0000.0001) %MON dynstat_salt_del2            =   4.9538110838602E-07
(PID.TID 0000.0001) %MON dynstat_sst_max              =   2.6140195937983E+01
(PID.TID 0000.0001) %MON dynstat_sst_min              =   4.0772403377522E+00
(PID.TID 0000.0001) %MON dynstat_sst_mean             =   1.9648318016719E+01
(PID.TID 0000.0001) %MON dynstat_sst_sd               =   3.6387282275490E+00
(PID.TID 0000.0001) %MON dynstat_sst_del2             =   1.9150908580880E-05
(PID.TID 0000.0001) %MON dynstat_sss_max              =   3.7335266470339E+01
(PID.TID 0000.0001) %MON dynstat_sss_min              =   3.3090310167836E+01
(PID.TID 0000.0001) %MON dynstat_sss_mean             =   3.5867997261817E+01
(PID.TID 0000.0001) %MON dynstat_sss_sd               =   4.8719015768055E-01
(PID.TID 0000.0001) %MON dynstat_sss_del2             =   5.0256484863279E-06
(PID.TID 0000.0001) %MON forcing_qnet_max             =   1.1883779563098E+03
(PID.TID 0000.0001) %MON forcing_qnet_min             =  -3.3948141546573E+02
(PID.TID 0000.0001) %MON forcing_qnet_mean            =   2.2390802773563E+02
(PID.TID 0000.0001) %MON forcing_qnet_sd              =   1.5698921689704E+02
(PID.TID 0000.0001) %MON forcing_qnet_del2            =   1.6705609464397E-03
(PID.TID 0000.0001) %MON forcing_qsw_max              =   0.0000000000000E+00
(PID.TID 0000.0001) %MON forcing_qsw_min              =  -2.6065376021776E+01
(PID.TID 0000.0001) %MON forcing_qsw_mean             =  -8.2651682550329E-01
(PID.TID 0000.0001) %MON forcing_qsw_sd               =   2.6778487776596E+00
(PID.TID 0000.0001) %MON forcing_qsw_del2             =   9.2528725170223E-06
(PID.TID 0000.0001) %MON forcing_empmr_max            =   2.4803769087663E-04
(PID.TID 0000.0001) %MON forcing_empmr_min            =  -8.3952561058255E-04
(PID.TID 0000.0001) %MON forcing_empmr_mean           =   1.5732176877304E-05
(PID.TID 0000.0001) %MON forcing_empmr_sd             =   1.1224989931413E-04
(PID.TID 0000.0001) %MON forcing_empmr_del2           =   7.6026617298996E-10
(PID.TID 0000.0001) %MON forcing_fu_max               =   1.2040722995218E+00
(PID.TID 0000.0001) %MON forcing_fu_min               =  -4.2346910093637E-01
(PID.TID 0000.0001) %MON forcing_fu_mean              =   7.3546002368184E-02
(PID.TID 0000.0001) %MON forcing_fu_sd                =   1.7342752179398E-01
(PID.TID 0000.0001) %MON forcing_fu_del2              =   2.4275828444126E-07
(PID.TID 0000.0001) %MON forcing_fv_max               =   5.4423781551786E-01
(PID.TID 0000.0001) %MON forcing_fv_min               =  -5.0347550057991E-01
(PID.TID 0000.0001) %MON forcing_fv_mean              =   2.1529168628234E-02
(PID.TID 0000.0001) %MON forcing_fv_sd                =   1.2172435695819E-01
(PID.TID 0000.0001) %MON forcing_fv_del2              =   2.2224303915676E-07
(PID.TID 0000.0001) %MON trAdv_CFL_u_max              =   7.7176006034837E-02
(PID.TID 0000.0001) %MON trAdv_CFL_v_max              =   1.1969517004292E-01
(PID.TID 0000.0001) %MON trAdv_CFL_w_max              =   6.5345344708192E-01
(PID.TID 0000.0001) %MON advcfl_uvel_max              =   7.7176004984016E-02
(PID.TID 0000.0001) %MON advcfl_vvel_max              =   1.1972999671543E-01
(PID.TID 0000.0001) %MON advcfl_wvel_max              =   6.5345344708192E-01
(PID.TID 0000.0001) %MON advcfl_W_hf_max              =   6.5345344708192E-01
(PID.TID 0000.0001) %MON pe_b_mean                    =  -3.7796687783992E-05
(PID.TID 0000.0001) %MON ke_max                       =   1.6052714003815E+00
(PID.TID 0000.0001) %MON ke_mean                      =   2.5099801783183E-03
(PID.TID 0000.0001) %MON ke_vol                       =   4.5818637279720E+16
(PID.TID 0000.0001) %MON vort_r_min                   =  -3.7654004834721E-04
(PID.TID 0000.0001) %MON vort_r_max                   =   5.4460105505448E-04
(PID.TID 0000.0001) %MON vort_a_mean                  =   8.2147630795905E-05
(PID.TID 0000.0001) %MON vort_a_sd                    =   1.0118727022048E-05
(PID.TID 0000.0001) %MON vort_p_mean                  =   8.4848852358474E-05
(PID.TID 0000.0001) %MON vort_p_sd                    =   3.4984682036190E-05
(PID.TID 0000.0001) %MON surfExpan_theta_mean         =   4.0157257087829E-05
(PID.TID 0000.0001) %MON surfExpan_salt_mean          =  -2.3871379380191E-04
(PID.TID 0000.0001) // =======================================================
(PID.TID 0000.0001) // End MONITOR dynamic field statistics
(PID.TID 0000.0001) // =======================================================
(PID.TID 0000.0001) // =======================================================
(PID.TID 0000.0001) // Begin OBCS MONITOR field statistics
(PID.TID 0000.0001) // =======================================================
(PID.TID 0000.0001) %MON obc_N_vVel_max               =   6.9574427194414E-01
(PID.TID 0000.0001) %MON obc_N_vVel_min               =  -3.2190138536929E-01
(PID.TID 0000.0001) %MON obc_N_vVel_mean              =   1.3214372707035E-02
(PID.TID 0000.0001) %MON obc_N_vVel_sd                =   6.4696568943744E-02
(PID.TID 0000.0001) %MON obc_N_vVel_Int               =   1.8916486142242E+08
(PID.TID 0000.0001) %MON obc_S_vVel_max               =   1.8944082266793E+00
(PID.TID 0000.0001) %MON obc_S_vVel_min               =  -2.6193006856167E-01
(PID.TID 0000.0001) %MON obc_S_vVel_mean              =   3.4426239329257E-03
(PID.TID 0000.0001) %MON obc_S_vVel_sd                =   3.5781323435683E-02
(PID.TID 0000.0001) %MON obc_S_vVel_Int               =   1.0480345500166E+08
(PID.TID 0000.0001) %MON obc_N_theta_max              =   1.6390772942977E+01
(PID.TID 0000.0001) %MON obc_N_theta_min              =   1.8895907760510E+00
(PID.TID 0000.0001) %MON obc_N_theta_mean             =   5.1589731177388E+00
(PID.TID 0000.0001) %MON obc_N_theta_sd               =   3.4827246474693E+00
(PID.TID 0000.0001) %MON obc_S_theta_max              =   2.5544838560027E+01
(PID.TID 0000.0001) %MON obc_S_theta_min              =   1.4632960371739E+00
(PID.TID 0000.0001) %MON obc_S_theta_mean             =   5.4595569751868E+00
(PID.TID 0000.0001) %MON obc_S_theta_sd               =   5.3559331643598E+00
(PID.TID 0000.0001) %MON obc_N_salt_max               =   3.5910867239595E+01
(PID.TID 0000.0001) %MON obc_N_salt_min               =   3.3295019572678E+01
(PID.TID 0000.0001) %MON obc_N_salt_mean              =   3.5114564020364E+01
(PID.TID 0000.0001) %MON obc_N_salt_sd                =   3.0984921004960E-01
(PID.TID 0000.0001) %MON obc_S_salt_max               =   3.7318339746237E+01
(PID.TID 0000.0001) %MON obc_S_salt_min               =   3.4844694366037E+01
(PID.TID 0000.0001) %MON obc_S_salt_mean              =   3.5168372866917E+01
(PID.TID 0000.0001) %MON obc_S_salt_sd                =   4.5717075682044E-01
(PID.TID 0000.0001) // =======================================================
(PID.TID 0000.0001) // End OBCS MONITOR field statistics
(PID.TID 0000.0001) // =======================================================
(PID.TID 0000.0001) // =======================================================
(PID.TID 0000.0001) // Begin MONITOR EXF statistics
(PID.TID 0000.0001) // =======================================================
(PID.TID 0000.0001) %MON exf_tsnumber                 =                     1
(PID.TID 0000.0001) %MON exf_time_sec                 =   2.4000000000000E+02
(PID.TID 0000.0001) %MON exf_ustress_max              =   1.1897938275417E+00
(PID.TID 0000.0001) %MON exf_ustress_min              =  -3.9617363164256E-01
(PID.TID 0000.0001) %MON exf_ustress_mean             =   7.3084903026871E-02
(PID.TID 0000.0001) %MON exf_ustress_sd               =   1.7178612869176E-01
(PID.TID 0000.0001) %MON exf_ustress_del2             =   3.0953449855460E-07
(PID.TID 0000.0001) %MON exf_vstress_max              =   5.2730250167867E-01
(PID.TID 0000.0001) %MON exf_vstress_min              =  -4.9748807474526E-01
(PID.TID 0000.0001) %MON exf_vstress_mean             =   2.1267402225521E-02
(PID.TID 0000.0001) %MON exf_vstress_sd               =   1.1991926878765E-01
(PID.TID 0000.0001) %MON exf_vstress_del2             =   2.3343346291779E-07
(PID.TID 0000.0001) %MON exf_hflux_max                =   1.1667516119067E+03
(PID.TID 0000.0001) %MON exf_hflux_min                =  -3.1831241562111E+02
(PID.TID 0000.0001) %MON exf_hflux_mean               =   2.2188508417747E+02
(PID.TID 0000.0001) %MON exf_hflux_sd                 =   1.5157992495658E+02
(PID.TID 0000.0001) %MON exf_hflux_del2               =   6.0732656627540E-02
(PID.TID 0000.0001) %MON exf_sflux_max                =   2.4738186165655E-07
(PID.TID 0000.0001) %MON exf_sflux_min                =  -8.4548139588825E-07
(PID.TID 0000.0001) %MON exf_sflux_mean               =   1.5643002677893E-08
(PID.TID 0000.0001) %MON exf_sflux_sd                 =   1.1197716288830E-07
(PID.TID 0000.0001) %MON exf_sflux_del2               =   2.5731808834746E-11
(PID.TID 0000.0001) %MON exf_uwind_max                =   2.2012791433715E+01
(PID.TID 0000.0001) %MON exf_uwind_min                =  -1.4291061959881E+01
(PID.TID 0000.0001) %MON exf_uwind_mean               =   2.7052707539535E+00
(PID.TID 0000.0001) %MON exf_uwind_sd                 =   6.7490863916358E+00
(PID.TID 0000.0001) %MON exf_uwind_del2               =   1.6217549401721E-03
(PID.TID 0000.0001) %MON exf_vwind_max                =   1.5731120936418E+01
(PID.TID 0000.0001) %MON exf_vwind_min                =  -1.2998971503945E+01
(PID.TID 0000.0001) %MON exf_vwind_mean               =   1.1017253903005E+00
(PID.TID 0000.0001) %MON exf_vwind_sd                 =   5.6561983128718E+00
(PID.TID 0000.0001) %MON exf_vwind_del2               =   1.2952477252827E-03
(PID.TID 0000.0001) %MON exf_wspeed_max               =   2.2789720464159E+01
(PID.TID 0000.0001) %MON exf_wspeed_min               =   2.5446443708234E-03
(PID.TID 0000.0001) %MON exf_wspeed_mean              =   8.0871144884104E+00
(PID.TID 0000.0001) %MON exf_wspeed_sd                =   4.5468246519377E+00
(PID.TID 0000.0001) %MON exf_wspeed_del2              =   2.0753507446523E-03
(PID.TID 0000.0001) %MON exf_atemp_max                =   2.9786442199591E+02
(PID.TID 0000.0001) %MON exf_atemp_min                =   2.7474659182544E+02
(PID.TID 0000.0001) %MON exf_atemp_mean               =   2.9106005672512E+02
(PID.TID 0000.0001) %MON exf_atemp_sd                 =   3.9545374262178E+00
(PID.TID 0000.0001) %MON exf_atemp_del2               =   3.9589529881757E-03
(PID.TID 0000.0001) %MON exf_aqh_max                  =   1.5820456184299E-02
(PID.TID 0000.0001) %MON exf_aqh_min                  =   2.7174944295096E-03
(PID.TID 0000.0001) %MON exf_aqh_mean                 =   1.0100863173407E-02
(PID.TID 0000.0001) %MON exf_aqh_sd                   =   2.6014327589032E-03
(PID.TID 0000.0001) %MON exf_aqh_del2                 =   2.2629874408468E-06
(PID.TID 0000.0001) %MON exf_lwflux_max               =   1.6298234375982E+02
(PID.TID 0000.0001) %MON exf_lwflux_min               =  -2.8783234239949E+01
(PID.TID 0000.0001) %MON exf_lwflux_mean              =   6.9478503556377E+01
(PID.TID 0000.0001) %MON exf_lwflux_sd                =   2.7181169765165E+01
(PID.TID 0000.0001) %MON exf_lwflux_del2              =   1.6294075655476E-02
(PID.TID 0000.0001) %MON exf_evap_max                 =   2.7177207151839E-07
(PID.TID 0000.0001) %MON exf_evap_min                 =  -9.0119718664020E-08
(PID.TID 0000.0001) %MON exf_evap_mean                =   5.1631844384292E-08
(PID.TID 0000.0001) %MON exf_evap_sd                  =   3.8844750644040E-08
(PID.TID 0000.0001) %MON exf_evap_del2                =   1.4558138408725E-11
(PID.TID 0000.0001) %MON exf_precip_max               =   8.3126554381697E-07
(PID.TID 0000.0001) %MON exf_precip_min               =   0.0000000000000E+00
(PID.TID 0000.0001) %MON exf_precip_mean              =   3.4400362134408E-08
(PID.TID 0000.0001) %MON exf_precip_sd                =   9.7840702553896E-08
(PID.TID 0000.0001) %MON exf_precip_del2              =   2.3785830617540E-11
(PID.TID 0000.0001) %MON exf_swflux_max               =   0.0000000000000E+00
(PID.TID 0000.0001) %MON exf_swflux_min               =  -2.4906914865252E+01
(PID.TID 0000.0001) %MON exf_swflux_mean              =  -7.8978274436981E-01
(PID.TID 0000.0001) %MON exf_swflux_sd                =   2.5588332764303E+00
(PID.TID 0000.0001) %MON exf_swflux_del2              =   5.1466935755483E-04
(PID.TID 0000.0001) %MON exf_swdown_max               =   2.7674349850280E+01
(PID.TID 0000.0001) %MON exf_swdown_min               =   0.0000000000000E+00
(PID.TID 0000.0001) %MON exf_swdown_mean              =   8.7753638263313E-01
(PID.TID 0000.0001) %MON exf_swdown_sd                =   2.8431480849226E+00
(PID.TID 0000.0001) %MON exf_swdown_del2              =   5.7185484172759E-04
(PID.TID 0000.0001) %MON exf_lwdown_max               =   4.0729303195333E+02
(PID.TID 0000.0001) %MON exf_lwdown_min               =   2.2930938642620E+02
(PID.TID 0000.0001) %MON exf_lwdown_mean              =   3.4548960766012E+02
(PID.TID 0000.0001) %MON exf_lwdown_sd                =   3.1310786060349E+01
(PID.TID 0000.0001) %MON exf_lwdown_del2              =   7.5714141204959E-02
(PID.TID 0000.0001) %MON exf_apressure_max            =   1.0277430747217E+05
(PID.TID 0000.0001) %MON exf_apressure_min            =   9.9926704808046E+04
(PID.TID 0000.0001) %MON exf_apressure_mean           =   1.0213250753328E+05
(PID.TID 0000.0001) %MON exf_apressure_sd             =   5.1219686732518E+02
(PID.TID 0000.0001) %MON exf_apressure_del2           =   2.2349657253249E+01
(PID.TID 0000.0001) %MON exf_runoff_max               =   4.4374798712073E-08
(PID.TID 0000.0001) %MON exf_runoff_min               =   0.0000000000000E+00
(PID.TID 0000.0001) %MON exf_runoff_mean              =   1.5884795719908E-09
(PID.TID 0000.0001) %MON exf_runoff_sd                =   5.3901959599983E-09
(PID.TID 0000.0001) %MON exf_runoff_del2              =   1.2741189756369E-12
(PID.TID 0000.0001) // =======================================================
(PID.TID 0000.0001) // End MONITOR EXF statistics
(PID.TID 0000.0001) // =======================================================
 cg2d: Sum(rhs),rhsMax =   1.19494929877159E+02  4.70921561931383E-02
(PID.TID 0000.0001)      cg2d_init_res =   1.39154035690170E+01
(PID.TID 0000.0001)      cg2d_iters(min,last) =      -1     323
(PID.TID 0000.0001)      cg2d_last_res =   6.82375710404829E-12
(PID.TID 0000.0001) // =======================================================
(PID.TID 0000.0001) // Begin MONITOR dynamic field statistics
(PID.TID 0000.0001) // =======================================================
(PID.TID 0000.0001) %MON time_tsnumber                =                     2
(PID.TID 0000.0001) %MON time_secondsf                =   4.8000000000000E+02
(PID.TID 0000.0001) %MON dynstat_eta_max              =   8.7317938008683E-01
(PID.TID 0000.0001) %MON dynstat_eta_min              =  -1.5309730662161E+00
(PID.TID 0000.0001) %MON dynstat_eta_mean             =  -4.0636761606450E-03
(PID.TID 0000.0001) %MON dynstat_eta_sd               =   9.7698682949990E-02
(PID.TID 0000.0001) %MON dynstat_eta_del2             =   3.4500275507847E-06
(PID.TID 0000.0001) %MON dynstat_uvel_max             =   1.2825724343515E+00
(PID.TID 0000.0001) %MON dynstat_uvel_min             =  -7.0557885318303E-01
(PID.TID 0000.0001) %MON dynstat_uvel_mean            =   3.7660187643310E-03
(PID.TID 0000.0001) %MON dynstat_uvel_sd              =   5.2264356854455E-02
(PID.TID 0000.0001) %MON dynstat_uvel_del2            =   4.6220829323260E-07
(PID.TID 0000.0001) %MON dynstat_vvel_max             =   1.9227748132589E+00
(PID.TID 0000.0001) %MON dynstat_vvel_min             =  -8.9265604535272E-01
(PID.TID 0000.0001) %MON dynstat_vvel_mean            =  -1.1508461308786E-03
(PID.TID 0000.0001) %MON dynstat_vvel_sd              =   4.8157259290689E-02
(PID.TID 0000.0001) %MON dynstat_vvel_del2            =   4.2802427982603E-07
(PID.TID 0000.0001) %MON dynstat_wvel_max             =   3.7584673138740E-02
(PID.TID 0000.0001) %MON dynstat_wvel_min             =  -3.2823365146090E-02
(PID.TID 0000.0001) %MON dynstat_wvel_mean            =  -4.3165097998950E-06
(PID.TID 0000.0001) %MON dynstat_wvel_sd              =   5.8532427577545E-04
(PID.TID 0000.0001) %MON dynstat_wvel_del2            =   9.0301967338714E-08
(PID.TID 0000.0001) %MON dynstat_theta_max            =   2.6141242129098E+01
(PID.TID 0000.0001) %MON dynstat_theta_min            =   1.4688637571152E+00
(PID.TID 0000.0001) %MON dynstat_theta_mean           =   5.5098637507583E+00
(PID.TID 0000.0001) %MON dynstat_theta_sd             =   4.7734785513711E+00
(PID.TID 0000.0001) %MON dynstat_theta_del2           =   4.0038685517474E-06
(PID.TID 0000.0001) %MON dynstat_salt_max             =   3.9182778850655E+01
(PID.TID 0000.0001) %MON dynstat_salt_min             =   3.3091044027898E+01
(PID.TID 0000.0001) %MON dynstat_salt_mean            =   3.5173371439132E+01
(PID.TID 0000.0001) %MON dynstat_salt_sd              =   3.7891408468413E-01
(PID.TID 0000.0001) %MON dynstat_salt_del2            =   4.9552554957785E-07
(PID.TID 0000.0001) %MON dynstat_sst_max              =   2.6138885283252E+01
(PID.TID 0000.0001) %MON dynstat_sst_min              =   4.0633225631109E+00
(PID.TID 0000.0001) %MON dynstat_sst_mean             =   1.9646693309611E+01
(PID.TID 0000.0001) %MON dynstat_sst_sd               =   3.6386686981364E+00
(PID.TID 0000.0001) %MON dynstat_sst_del2             =   1.9095583761774E-05
(PID.TID 0000.0001) %MON dynstat_sss_max              =   3.7335371677036E+01
(PID.TID 0000.0001) %MON dynstat_sss_min              =   3.3091044027898E+01
(PID.TID 0000.0001) %MON dynstat_sss_mean             =   3.5868041227593E+01
(PID.TID 0000.0001) %MON dynstat_sss_sd               =   4.8719932647302E-01
(PID.TID 0000.0001) %MON dynstat_sss_del2             =   5.0097745252388E-06
(PID.TID 0000.0001) %MON forcing_qnet_max             =   1.1846258564595E+03
(PID.TID 0000.0001) %MON forcing_qnet_min             =  -3.3840033127635E+02
(PID.TID 0000.0001) %MON forcing_qnet_mean            =   2.2352072962161E+02
(PID.TID 0000.0001) %MON forcing_qnet_sd              =   1.5622050871672E+02
(PID.TID 0000.0001) %MON forcing_qnet_del2            =   1.6567536463626E-03
(PID.TID 0000.0001) %MON forcing_qsw_max              =   0.0000000000000E+00
(PID.TID 0000.0001) %MON forcing_qsw_min              =  -2.4906914865252E+01
(PID.TID 0000.0001) %MON forcing_qsw_mean             =  -7.8978274436981E-01
(PID.TID 0000.0001) %MON forcing_qsw_sd               =   2.5588332764303E+00
(PID.TID 0000.0001) %MON forcing_qsw_del2             =   8.8416337384880E-06
(PID.TID 0000.0001) %MON forcing_empmr_max            =   2.4738186165655E-04
(PID.TID 0000.0001) %MON forcing_empmr_min            =  -8.4548139588825E-04
(PID.TID 0000.0001) %MON forcing_empmr_mean           =   1.5643002677893E-05
(PID.TID 0000.0001) %MON forcing_empmr_sd             =   1.1197716288830E-04
(PID.TID 0000.0001) %MON forcing_empmr_del2           =   7.5945383240751E-10
(PID.TID 0000.0001) %MON forcing_fu_max               =   1.1890681690572E+00
(PID.TID 0000.0001) %MON forcing_fu_min               =  -3.9615724497700E-01
(PID.TID 0000.0001) %MON forcing_fu_mean              =   7.3146691027985E-02
(PID.TID 0000.0001) %MON forcing_fu_sd                =   1.7185392622539E-01
(PID.TID 0000.0001) %MON forcing_fu_del2              =   2.5936577614932E-07
(PID.TID 0000.0001) %MON forcing_fv_max               =   5.2672810820562E-01
(PID.TID 0000.0001) %MON forcing_fv_min               =  -4.9872871094882E-01
(PID.TID 0000.0001) %MON forcing_fv_mean              =   2.1277816590161E-02
(PID.TID 0000.0001) %MON forcing_fv_sd                =   1.2007378667545E-01
(PID.TID 0000.0001) %MON forcing_fv_del2              =   2.1601964368278E-07
(PID.TID 0000.0001) %MON trAdv_CFL_u_max              =   7.7814648057183E-02
(PID.TID 0000.0001) %MON trAdv_CFL_v_max              =   1.2148746768836E-01
(PID.TID 0000.0001) %MON trAdv_CFL_w_max              =   5.1817131876232E-01
(PID.TID 0000.0001) %MON advcfl_uvel_max              =   7.7814646997667E-02
(PID.TID 0000.0001) %MON advcfl_vvel_max              =   1.2152281585028E-01
(PID.TID 0000.0001) %MON advcfl_wvel_max              =   5.1970891911473E-01
(PID.TID 0000.0001) %MON advcfl_W_hf_max              =   5.2125567185019E-01
(PID.TID 0000.0001) %MON pe_b_mean                    =  -8.6249593575982E-05
(PID.TID 0000.0001) %MON ke_max                       =   1.6900553400375E+00
(PID.TID 0000.0001) %MON ke_mean                      =   2.5143294994739E-03
(PID.TID 0000.0001) %MON ke_vol                       =   4.5818637279720E+16
(PID.TID 0000.0001) %MON vort_r_min                   =  -4.3039763190245E-04
(PID.TID 0000.0001) %MON vort_r_max                   =   6.0060690324037E-04
(PID.TID 0000.0001) %MON vort_a_mean                  =   8.2147630071754E-05
(PID.TID 0000.0001) %MON vort_a_sd                    =   1.0121507252664E-05
(PID.TID 0000.0001) %MON vort_p_mean                  =   8.4848851610511E-05
(PID.TID 0000.0001) %MON vort_p_sd                    =   3.4982305903449E-05
(PID.TID 0000.0001) %MON surfExpan_theta_mean         =   2.2837898030476E-05
(PID.TID 0000.0001) %MON surfExpan_salt_mean          =  -3.1017740876373E-04
(PID.TID 0000.0001) // =======================================================
(PID.TID 0000.0001) // End MONITOR dynamic field statistics
(PID.TID 0000.0001) // =======================================================
(PID.TID 0000.0001) // =======================================================
(PID.TID 0000.0001) // Begin OBCS MONITOR field statistics
(PID.TID 0000.0001) // =======================================================
(PID.TID 0000.0001) %MON obc_N_vVel_max               =   6.9568554767849E-01
(PID.TID 0000.0001) %MON obc_N_vVel_min               =  -3.2199381926990E-01
(PID.TID 0000.0001) %MON obc_N_vVel_mean              =   1.3307490691962E-02
(PID.TID 0000.0001) %MON obc_N_vVel_sd                =   6.4696469699490E-02
(PID.TID 0000.0001) %MON obc_N_vVel_Int               =   1.9049785324164E+08
(PID.TID 0000.0001) %MON obc_S_vVel_max               =   1.9227748132589E+00
(PID.TID 0000.0001) %MON obc_S_vVel_min               =  -2.6207127723095E-01
(PID.TID 0000.0001) %MON obc_S_vVel_mean              =   2.7429399846448E-03
(PID.TID 0000.0001) %MON obc_S_vVel_sd                =   3.5810089513638E-02
(PID.TID 0000.0001) %MON obc_S_vVel_Int               =   8.3503046761390E+07
(PID.TID 0000.0001) %MON obc_N_theta_max              =   1.6390684840790E+01
(PID.TID 0000.0001) %MON obc_N_theta_min              =   1.8895908251163E+00
(PID.TID 0000.0001) %MON obc_N_theta_mean             =   5.1589657335888E+00
(PID.TID 0000.0001) %MON obc_N_theta_sd               =   3.4827153546990E+00
(PID.TID 0000.0001) %MON obc_S_theta_max              =   2.5544735811248E+01
(PID.TID 0000.0001) %MON obc_S_theta_min              =   1.4632964334612E+00
(PID.TID 0000.0001) %MON obc_S_theta_mean             =   5.4595561701622E+00
(PID.TID 0000.0001) %MON obc_S_theta_sd               =   5.3559292930331E+00
(PID.TID 0000.0001) %MON obc_N_salt_max               =   3.5910866831232E+01
(PID.TID 0000.0001) %MON obc_N_salt_min               =   3.3295025075312E+01
(PID.TID 0000.0001) %MON obc_N_salt_mean              =   3.5114563724377E+01
(PID.TID 0000.0001) %MON obc_N_salt_sd                =   3.0984909061059E-01
(PID.TID 0000.0001) %MON obc_S_salt_max               =   3.7318332861853E+01
(PID.TID 0000.0001) %MON obc_S_salt_min               =   3.4844694418258E+01
(PID.TID 0000.0001) %MON obc_S_salt_mean              =   3.5168372795001E+01
(PID.TID 0000.0001) %MON obc_S_salt_sd                =   4.5717040571680E-01
(PID.TID 0000.0001) // =======================================================
(PID.TID 0000.0001) // End OBCS MONITOR field statistics
(PID.TID 0000.0001) // =======================================================
(PID.TID 0000.0001) // =======================================================
(PID.TID 0000.0001) // Begin MONITOR EXF statistics
(PID.TID 0000.0001) // =======================================================
(PID.TID 0000.0001) %MON exf_tsnumber                 =                     2
(PID.TID 0000.0001) %MON exf_time_sec                 =   4.8000000000000E+02
(PID.TID 0000.0001) %MON exf_ustress_max              =   1.1822830727582E+00
(PID.TID 0000.0001) %MON exf_ustress_min              =  -3.7117807009310E-01
(PID.TID 0000.0001) %MON exf_ustress_mean             =   7.2739765278460E-02
(PID.TID 0000.0001) %MON exf_ustress_sd               =   1.7038789542531E-01
(PID.TID 0000.0001) %MON exf_ustress_del2             =   3.1366928515123E-07
(PID.TID 0000.0001) %MON exf_vstress_max              =   5.1110730332150E-01
(PID.TID 0000.0001) %MON exf_vstress_min              =  -4.9246044617846E-01
(PID.TID 0000.0001) %MON exf_vstress_mean             =   2.1042626445796E-02
(PID.TID 0000.0001) %MON exf_vstress_sd               =   1.1842178340565E-01
(PID.TID 0000.0001) %MON exf_vstress_del2             =   2.3038837108192E-07
(PID.TID 0000.0001) %MON exf_hflux_max                =   1.1639698527222E+03
(PID.TID 0000.0001) %MON exf_hflux_min                =  -3.1774898657865E+02
(PID.TID 0000.0001) %MON exf_hflux_mean               =   2.2155759633981E+02
(PID.TID 0000.0001) %MON exf_hflux_sd                 =   1.5092864434326E+02
(PID.TID 0000.0001) %MON exf_hflux_del2               =   6.0586722969848E-02
(PID.TID 0000.0001) %MON exf_sflux_max                =   2.4694898084620E-07
(PID.TID 0000.0001) %MON exf_sflux_min                =  -8.5142857902519E-07
(PID.TID 0000.0001) %MON exf_sflux_mean               =   1.5568499318522E-08
(PID.TID 0000.0001) %MON exf_sflux_sd                 =   1.1178655871917E-07
(PID.TID 0000.0001) %MON exf_sflux_del2               =   2.5692232487746E-11
(PID.TID 0000.0001) %MON exf_uwind_max                =   2.1979126778104E+01
(PID.TID 0000.0001) %MON exf_uwind_min                =  -1.4256265819244E+01
(PID.TID 0000.0001) %MON exf_uwind_mean               =   2.7057874775719E+00
(PID.TID 0000.0001) %MON exf_uwind_sd                 =   6.7335851401900E+00
(PID.TID 0000.0001) %MON exf_uwind_del2               =   1.6187251311067E-03
(PID.TID 0000.0001) %MON exf_vwind_max                =   1.5488229902384E+01
(PID.TID 0000.0001) %MON exf_vwind_min                =  -1.2939627486267E+01
(PID.TID 0000.0001) %MON exf_vwind_mean               =   1.1024863965817E+00
(PID.TID 0000.0001) %MON exf_vwind_sd                 =   5.6306479841129E+00
(PID.TID 0000.0001) %MON exf_vwind_del2               =   1.2895564696590E-03
(PID.TID 0000.0001) %MON exf_wspeed_max               =   2.2724098816615E+01
(PID.TID 0000.0001) %MON exf_wspeed_min               =   6.3840080062063E-03
(PID.TID 0000.0001) %MON exf_wspeed_mean              =   8.0653500667074E+00
(PID.TID 0000.0001) %MON exf_wspeed_sd                =   4.5312532472901E+00
(PID.TID 0000.0001) %MON exf_wspeed_del2              =   2.0694371876353E-03
(PID.TID 0000.0001) %MON exf_atemp_max                =   2.9785302927520E+02
(PID.TID 0000.0001) %MON exf_atemp_min                =   2.7471606689163E+02
(PID.TID 0000.0001) %MON exf_atemp_mean               =   2.9105775157525E+02
(PID.TID 0000.0001) %MON exf_atemp_sd                 =   3.9528332494889E+00
(PID.TID 0000.0001) %MON exf_atemp_del2               =   3.9583413119079E-03
(PID.TID 0000.0001) %MON exf_aqh_max                  =   1.5816590817587E-02
(PID.TID 0000.0001) %MON exf_aqh_min                  =   2.7184692220672E-03
(PID.TID 0000.0001) %MON exf_aqh_mean                 =   1.0099412442463E-02
(PID.TID 0000.0001) %MON exf_aqh_sd                   =   2.5993293108079E-03
(PID.TID 0000.0001) %MON exf_aqh_del2                 =   2.2624700402470E-06
(PID.TID 0000.0001) %MON exf_lwflux_max               =   1.6295292063909E+02
(PID.TID 0000.0001) %MON exf_lwflux_min               =  -2.8573552160007E+01
(PID.TID 0000.0001) %MON exf_lwflux_mean              =   6.9467940088662E+01
(PID.TID 0000.0001) %MON exf_lwflux_sd                =   2.7193220034827E+01
(PID.TID 0000.0001) %MON exf_lwflux_del2              =   1.6292888690075E-02
(PID.TID 0000.0001) %MON exf_evap_max                 =   2.7129912773585E-07
(PID.TID 0000.0001) %MON exf_evap_min                 =  -8.9658729334521E-08
(PID.TID 0000.0001) %MON exf_evap_mean                =   5.1515974524598E-08
(PID.TID 0000.0001) %MON exf_evap_sd                  =   3.8636819772755E-08
(PID.TID 0000.0001) %MON exf_evap_del2                =   1.4509431115475E-11
(PID.TID 0000.0001) %MON exf_precip_max               =   8.3717127556774E-07
(PID.TID 0000.0001) %MON exf_precip_min               =   0.0000000000000E+00
(PID.TID 0000.0001) %MON exf_precip_mean              =   3.4358995634085E-08
(PID.TID 0000.0001) %MON exf_precip_sd                =   9.7783211077236E-08
(PID.TID 0000.0001) %MON exf_precip_del2              =   2.3777256204437E-11
(PID.TID 0000.0001) %MON exf_swflux_max               =   0.0000000000000E+00
(PID.TID 0000.0001) %MON exf_swflux_min               =  -2.3748453708729E+01
(PID.TID 0000.0001) %MON exf_swflux_mean              =  -7.5304866323634E-01
(PID.TID 0000.0001) %MON exf_swflux_sd                =   2.4398177752010E+00
(PID.TID 0000.0001) %MON exf_swflux_del2              =   4.9073124790112E-04
(PID.TID 0000.0001) %MON exf_swdown_max               =   2.6387170787477E+01
(PID.TID 0000.0001) %MON exf_swdown_min               =   0.0000000000000E+00
(PID.TID 0000.0001) %MON exf_swdown_mean              =   8.3672073692926E-01
(PID.TID 0000.0001) %MON exf_swdown_sd                =   2.7109086391122E+00
(PID.TID 0000.0001) %MON exf_swdown_del2              =   5.4525694211235E-04
(PID.TID 0000.0001) %MON exf_lwdown_max               =   4.0716609504638E+02
(PID.TID 0000.0001) %MON exf_lwdown_min               =   2.2917183080121E+02
(PID.TID 0000.0001) %MON exf_lwdown_mean              =   3.4549123103338E+02
(PID.TID 0000.0001) %MON exf_lwdown_sd                =   3.1349955307678E+01
(PID.TID 0000.0001) %MON exf_lwdown_del2              =   7.5714500972464E-02
(PID.TID 0000.0001) %MON exf_apressure_max            =   1.0277325909457E+05
(PID.TID 0000.0001) %MON exf_apressure_min            =   9.9933048280557E+04
(PID.TID 0000.0001) %MON exf_apressure_mean           =   1.0213196537749E+05
(PID.TID 0000.0001) %MON exf_apressure_sd             =   5.1124496960425E+02
(PID.TID 0000.0001) %MON exf_apressure_del2           =   2.2349536708392E+01
(PID.TID 0000.0001) %MON exf_runoff_max               =   4.4374798712073E-08
(PID.TID 0000.0001) %MON exf_runoff_min               =   0.0000000000000E+00
(PID.TID 0000.0001) %MON exf_runoff_mean              =   1.5884795719908E-09
(PID.TID 0000.0001) %MON exf_runoff_sd                =   5.3901959599983E-09
(PID.TID 0000.0001) %MON exf_runoff_del2              =   1.2741189756369E-12
(PID.TID 0000.0001) // =======================================================
(PID.TID 0000.0001) // End MONITOR EXF statistics
(PID.TID 0000.0001) // =======================================================
 cg2d: Sum(rhs),rhsMax =   2.00361346372481E+02  3.88326914012006E-02
(PID.TID 0000.0001)      cg2d_init_res =   3.21724456294123E+00
(PID.TID 0000.0001)      cg2d_iters(min,last) =      -1     320
(PID.TID 0000.0001)      cg2d_last_res =   6.59893210292725E-12
(PID.TID 0000.0001) // =======================================================
(PID.TID 0000.0001) // Begin MONITOR dynamic field statistics
(PID.TID 0000.0001) // =======================================================
(PID.TID 0000.0001) %MON time_tsnumber                =                     3
(PID.TID 0000.0001) %MON time_secondsf                =   7.2000000000000E+02
(PID.TID 0000.0001) %MON dynstat_eta_max              =   9.5758789993877E-01
(PID.TID 0000.0001) %MON dynstat_eta_min              =  -1.5336642795433E+00
(PID.TID 0000.0001) %MON dynstat_eta_mean             =  -6.8137085615732E-03
(PID.TID 0000.0001) %MON dynstat_eta_sd               =   1.2646555406072E-01
(PID.TID 0000.0001) %MON dynstat_eta_del2             =   2.9313111561998E-06
(PID.TID 0000.0001) %MON dynstat_uvel_max             =   1.2902611969476E+00
(PID.TID 0000.0001) %MON dynstat_uvel_min             =  -8.9434378664408E-01
(PID.TID 0000.0001) %MON dynstat_uvel_mean            =   3.6501240990548E-03
(PID.TID 0000.0001) %MON dynstat_uvel_sd              =   5.2340066136431E-02
(PID.TID 0000.0001) %MON dynstat_uvel_del2            =   4.6329028106489E-07
(PID.TID 0000.0001) %MON dynstat_vvel_max             =   1.9873820750718E+00
(PID.TID 0000.0001) %MON dynstat_vvel_min             =  -8.9756462836893E-01
(PID.TID 0000.0001) %MON dynstat_vvel_mean            =  -1.5909466365017E-03
(PID.TID 0000.0001) %MON dynstat_vvel_sd              =   4.8199287205322E-02
(PID.TID 0000.0001) %MON dynstat_vvel_del2            =   4.2471411618575E-07
(PID.TID 0000.0001) %MON dynstat_wvel_max             =   3.7201629392640E-02
(PID.TID 0000.0001) %MON dynstat_wvel_min             =  -3.2621527252268E-02
(PID.TID 0000.0001) %MON dynstat_wvel_mean            =  -5.5391214022803E-06
(PID.TID 0000.0001) %MON dynstat_wvel_sd              =   5.8964250251638E-04
(PID.TID 0000.0001) %MON dynstat_wvel_del2            =   8.9137226553164E-08
(PID.TID 0000.0001) %MON dynstat_theta_max            =   2.6140797528941E+01
(PID.TID 0000.0001) %MON dynstat_theta_min            =   1.4688638492104E+00
(PID.TID 0000.0001) %MON dynstat_theta_mean           =   5.5098567102311E+00
(PID.TID 0000.0001) %MON dynstat_theta_sd             =   4.7734510541437E+00
(PID.TID 0000.0001) %MON dynstat_theta_del2           =   4.0024724638782E-06
(PID.TID 0000.0001) %MON dynstat_salt_max             =   3.9180977535051E+01
(PID.TID 0000.0001) %MON dynstat_salt_min             =   3.3091849670960E+01
(PID.TID 0000.0001) %MON dynstat_salt_mean            =   3.5173370091693E+01
(PID.TID 0000.0001) %MON dynstat_salt_sd              =   3.7891256929808E-01
(PID.TID 0000.0001) %MON dynstat_salt_del2            =   4.9696873687028E-07
(PID.TID 0000.0001) %MON dynstat_sst_max              =   2.6137763782060E+01
(PID.TID 0000.0001) %MON dynstat_sst_min              =   4.0495925119364E+00
(PID.TID 0000.0001) %MON dynstat_sst_mean             =   1.9645340609217E+01
(PID.TID 0000.0001) %MON dynstat_sst_sd               =   3.6386301968739E+00
(PID.TID 0000.0001) %MON dynstat_sst_del2             =   1.9068867006385E-05
(PID.TID 0000.0001) %MON dynstat_sss_max              =   3.7335456165293E+01
(PID.TID 0000.0001) %MON dynstat_sss_min              =   3.3091849670960E+01
(PID.TID 0000.0001) %MON dynstat_sss_mean             =   3.5868082635637E+01
(PID.TID 0000.0001) %MON dynstat_sss_sd               =   4.8720318860540E-01
(PID.TID 0000.0001) %MON dynstat_sss_del2             =   4.9957255406019E-06
(PID.TID 0000.0001) %MON forcing_qnet_max             =   1.1818056864464E+03
(PID.TID 0000.0001) %MON forcing_qnet_min             =  -3.3739354707652E+02
(PID.TID 0000.0001) %MON forcing_qnet_mean            =   2.2318625363347E+02
(PID.TID 0000.0001) %MON forcing_qnet_sd              =   1.5554754267322E+02
(PID.TID 0000.0001) %MON forcing_qnet_del2            =   1.6419448653549E-03
(PID.TID 0000.0001) %MON forcing_qsw_max              =   0.0000000000000E+00
(PID.TID 0000.0001) %MON forcing_qsw_min              =  -2.3748453708729E+01
(PID.TID 0000.0001) %MON forcing_qsw_mean             =  -7.5304866323634E-01
(PID.TID 0000.0001) %MON forcing_qsw_sd               =   2.4398177752010E+00
(PID.TID 0000.0001) %MON forcing_qsw_del2             =   8.4303949599537E-06
(PID.TID 0000.0001) %MON forcing_empmr_max            =   2.4694898084620E-04
(PID.TID 0000.0001) %MON forcing_empmr_min            =  -8.5142857902519E-04
(PID.TID 0000.0001) %MON forcing_empmr_mean           =   1.5568499318522E-05
(PID.TID 0000.0001) %MON forcing_empmr_sd             =   1.1178655871917E-04
(PID.TID 0000.0001) %MON forcing_empmr_del2           =   7.6103428713229E-10
(PID.TID 0000.0001) %MON forcing_fu_max               =   1.1808267167647E+00
(PID.TID 0000.0001) %MON forcing_fu_min               =  -3.7113478171353E-01
(PID.TID 0000.0001) %MON forcing_fu_mean              =   7.2801478346773E-02
(PID.TID 0000.0001) %MON forcing_fu_sd                =   1.7045512725424E-01
(PID.TID 0000.0001) %MON forcing_fu_del2              =   2.6135748995270E-07
(PID.TID 0000.0001) %MON forcing_fv_max               =   5.1089199982226E-01
(PID.TID 0000.0001) %MON forcing_fv_min               =  -4.9412113378835E-01
(PID.TID 0000.0001) %MON forcing_fv_mean              =   2.1052747237793E-02
(PID.TID 0000.0001) %MON forcing_fv_sd                =   1.1857514849635E-01
(PID.TID 0000.0001) %MON forcing_fv_del2              =   2.1089586040752E-07
(PID.TID 0000.0001) %MON trAdv_CFL_u_max              =   7.8281131149591E-02
(PID.TID 0000.0001) %MON trAdv_CFL_v_max              =   1.2556957474416E-01
(PID.TID 0000.0001) %MON trAdv_CFL_w_max              =   5.0191661406232E-01
(PID.TID 0000.0001) %MON advcfl_uvel_max              =   7.8281130083723E-02
(PID.TID 0000.0001) %MON advcfl_vvel_max              =   1.2560611064161E-01
(PID.TID 0000.0001) %MON advcfl_wvel_max              =   5.0340598086963E-01
(PID.TID 0000.0001) %MON advcfl_W_hf_max              =   5.0490421295555E-01
(PID.TID 0000.0001) %MON pe_b_mean                    =  -1.4483562189837E-04
(PID.TID 0000.0001) %MON ke_max                       =   1.7550929665599E+00
(PID.TID 0000.0001) %MON ke_mean                      =   2.5204464317985E-03
(PID.TID 0000.0001) %MON ke_vol                       =   4.5818637279720E+16
(PID.TID 0000.0001) %MON vort_r_min                   =  -4.6813617849344E-04
(PID.TID 0000.0001) %MON vort_r_max                   =   6.0338109745094E-04
(PID.TID 0000.0001) %MON vort_a_mean                  =   8.2147629334876E-05
(PID.TID 0000.0001) %MON vort_a_sd                    =   1.0122316812279E-05
(PID.TID 0000.0001) %MON vort_p_mean                  =   8.4848850849403E-05
(PID.TID 0000.0001) %MON vort_p_sd                    =   3.4978483239779E-05
(PID.TID 0000.0001) %MON surfExpan_theta_mean         =  -1.2563521156378E-05
(PID.TID 0000.0001) %MON surfExpan_salt_mean          =  -3.8341383600693E-04
(PID.TID 0000.0001) // =======================================================
(PID.TID 0000.0001) // End MONITOR dynamic field statistics
(PID.TID 0000.0001) // =======================================================
(PID.TID 0000.0001) // =======================================================
(PID.TID 0000.0001) // Begin OBCS MONITOR field statistics
(PID.TID 0000.0001) // =======================================================
(PID.TID 0000.0001) %MON obc_N_vVel_max               =   6.9561473952318E-01
(PID.TID 0000.0001) %MON obc_N_vVel_min               =  -3.2210984061472E-01
(PID.TID 0000.0001) %MON obc_N_vVel_mean              =   1.3386422536623E-02
(PID.TID 0000.0001) %MON obc_N_vVel_sd                =   6.4693635573125E-02
(PID.TID 0000.0001) %MON obc_N_vVel_Int               =   1.9162776926476E+08
(PID.TID 0000.0001) %MON obc_S_vVel_max               =   1.9873820750718E+00
(PID.TID 0000.0001) %MON obc_S_vVel_min               =  -2.6220596923867E-01
(PID.TID 0000.0001) %MON obc_S_vVel_mean              =   2.0408797773561E-03
(PID.TID 0000.0001) %MON obc_S_vVel_sd                =   3.5842793074871E-02
(PID.TID 0000.0001) %MON obc_S_vVel_Int               =   6.2130298306548E+07
(PID.TID 0000.0001) %MON obc_N_theta_max              =   1.6390596738603E+01
(PID.TID 0000.0001) %MON obc_N_theta_min              =   1.8895908741817E+00
(PID.TID 0000.0001) %MON obc_N_theta_mean             =   5.1589583494387E+00
(PID.TID 0000.0001) %MON obc_N_theta_sd               =   3.4827060621667E+00
(PID.TID 0000.0001) %MON obc_S_theta_max              =   2.5544633062468E+01
(PID.TID 0000.0001) %MON obc_S_theta_min              =   1.4632968297484E+00
(PID.TID 0000.0001) %MON obc_S_theta_mean             =   5.4595553651376E+00
(PID.TID 0000.0001) %MON obc_S_theta_sd               =   5.3559254217424E+00
(PID.TID 0000.0001) %MON obc_N_salt_max               =   3.5910866422869E+01
(PID.TID 0000.0001) %MON obc_N_salt_min               =   3.3295030577945E+01
(PID.TID 0000.0001) %MON obc_N_salt_mean              =   3.5114563428390E+01
(PID.TID 0000.0001) %MON obc_N_salt_sd                =   3.0984897118963E-01
(PID.TID 0000.0001) %MON obc_S_salt_max               =   3.7318325977469E+01
(PID.TID 0000.0001) %MON obc_S_salt_min               =   3.4844694470478E+01
(PID.TID 0000.0001) %MON obc_S_salt_mean              =   3.5168372723084E+01
(PID.TID 0000.0001) %MON obc_S_salt_sd                =   4.5717005460235E-01
(PID.TID 0000.0001) // =======================================================
(PID.TID 0000.0001) // End OBCS MONITOR field statistics
(PID.TID 0000.0001) // =======================================================
(PID.TID 0000.0001) // =======================================================
(PID.TID 0000.0001) // Begin MONITOR EXF statistics
(PID.TID 0000.0001) // =======================================================
(PID.TID 0000.0001) %MON exf_tsnumber                 =                     3
(PID.TID 0000.0001) %MON exf_time_sec                 =   7.2000000000000E+02
(PID.TID 0000.0001) %MON exf_ustress_max              =   1.1721651050703E+00
(PID.TID 0000.0001) %MON exf_ustress_min              =  -3.5545515456721E-01
(PID.TID 0000.0001) %MON exf_ustress_mean             =   7.2433049295945E-02
(PID.TID 0000.0001) %MON exf_ustress_sd               =   1.6912165882630E-01
(PID.TID 0000.0001) %MON exf_ustress_del2             =   3.0957886583913E-07
(PID.TID 0000.0001) %MON exf_vstress_max              =   4.9555457020757E-01
(PID.TID 0000.0001) %MON exf_vstress_min              =  -4.8778322986639E-01
(PID.TID 0000.0001) %MON exf_vstress_mean             =   2.0840768424850E-02
(PID.TID 0000.0001) %MON exf_vstress_sd               =   1.1705238118023E-01
(PID.TID 0000.0001) %MON exf_vstress_del2             =   2.2551170687576E-07
(PID.TID 0000.0001) %MON exf_hflux_max                =   1.1617825337785E+03
(PID.TID 0000.0001) %MON exf_hflux_min                =  -3.1724858111379E+02
(PID.TID 0000.0001) %MON exf_hflux_mean               =   2.2126683172335E+02
(PID.TID 0000.0001) %MON exf_hflux_sd                 =   1.5034249998584E+02
(PID.TID 0000.0001) %MON exf_hflux_del2               =   6.0457822172336E-02
(PID.TID 0000.0001) %MON exf_sflux_max                =   2.4666005614139E-07
(PID.TID 0000.0001) %MON exf_sflux_min                =  -8.5737245277305E-07
(PID.TID 0000.0001) %MON exf_sflux_mean               =   1.5504602362073E-08
(PID.TID 0000.0001) %MON exf_sflux_sd                 =   1.1167516891752E-07
(PID.TID 0000.0001) %MON exf_sflux_del2               =   2.5671006722485E-11
(PID.TID 0000.0001) %MON exf_uwind_max                =   2.1930306178459E+01
(PID.TID 0000.0001) %MON exf_uwind_min                =  -1.4224469781457E+01
(PID.TID 0000.0001) %MON exf_uwind_mean               =   2.7066506401469E+00
(PID.TID 0000.0001) %MON exf_uwind_sd                 =   6.7192288022554E+00
(PID.TID 0000.0001) %MON exf_uwind_del2               =   1.6159774781220E-03
(PID.TID 0000.0001) %MON exf_vwind_max                =   1.5247770075192E+01
(PID.TID 0000.0001) %MON exf_vwind_min                =  -1.2882336360728E+01
(PID.TID 0000.0001) %MON exf_vwind_mean               =   1.1033236281678E+00
(PID.TID 0000.0001) %MON exf_vwind_sd                 =   5.6064885339667E+00
(PID.TID 0000.0001) %MON exf_vwind_del2               =   1.2841862253857E-03
(PID.TID 0000.0001) %MON exf_wspeed_max               =   2.2644258907310E+01
(PID.TID 0000.0001) %MON exf_wspeed_min               =   7.0787023146477E-03
(PID.TID 0000.0001) %MON exf_wspeed_mean              =   8.0448521959831E+00
(PID.TID 0000.0001) %MON exf_wspeed_sd                =   4.5171211229747E+00
(PID.TID 0000.0001) %MON exf_wspeed_del2              =   2.0639482432512E-03
(PID.TID 0000.0001) %MON exf_atemp_max                =   2.9784163655449E+02
(PID.TID 0000.0001) %MON exf_atemp_min                =   2.7468554195783E+02
(PID.TID 0000.0001) %MON exf_atemp_mean               =   2.9105544642537E+02
(PID.TID 0000.0001) %MON exf_atemp_sd                 =   3.9512158753278E+00
(PID.TID 0000.0001) %MON exf_atemp_del2               =   3.9577339259900E-03
(PID.TID 0000.0001) %MON exf_aqh_max                  =   1.5812725450874E-02
(PID.TID 0000.0001) %MON exf_aqh_min                  =   2.7194440146247E-03
(PID.TID 0000.0001) %MON exf_aqh_mean                 =   1.0097961711518E-02
(PID.TID 0000.0001) %MON exf_aqh_sd                   =   2.5973566173157E-03
(PID.TID 0000.0001) %MON exf_aqh_del2                 =   2.2619606698276E-06
(PID.TID 0000.0001) %MON exf_lwflux_max               =   1.6292669264352E+02
(PID.TID 0000.0001) %MON exf_lwflux_min               =  -2.8365464682885E+01
(PID.TID 0000.0001) %MON exf_lwflux_mean              =   6.9458883912303E+01
(PID.TID 0000.0001) %MON exf_lwflux_sd                =   2.7211898503889E+01
(PID.TID 0000.0001) %MON exf_lwflux_del2              =   1.6292578910641E-02
(PID.TID 0000.0001) %MON exf_evap_max                 =   2.7097014005886E-07
(PID.TID 0000.0001) %MON exf_evap_min                 =  -8.9215882225843E-08
(PID.TID 0000.0001) %MON exf_evap_mean                =   5.1410711067826E-08
(PID.TID 0000.0001) %MON exf_evap_sd                  =   3.8447479166970E-08
(PID.TID 0000.0001) %MON exf_evap_del2                =   1.4465584344601E-11
(PID.TID 0000.0001) %MON exf_precip_max               =   8.4307700731852E-07
(PID.TID 0000.0001) %MON exf_precip_min               =   0.0000000000000E+00
(PID.TID 0000.0001) %MON exf_precip_mean              =   3.4317629133763E-08
(PID.TID 0000.0001) %MON exf_precip_sd                =   9.7796127689116E-08
(PID.TID 0000.0001) %MON exf_precip_del2              =   2.3783549449702E-11
(PID.TID 0000.0001) %MON exf_swflux_max               =   0.0000000000000E+00
(PID.TID 0000.0001) %MON exf_swflux_min               =  -2.2589992552206E+01
(PID.TID 0000.0001) %MON exf_swflux_mean              =  -7.1631458210286E-01
(PID.TID 0000.0001) %MON exf_swflux_sd                =   2.3208022739717E+00
(PID.TID 0000.0001) %MON exf_swflux_del2              =   4.6679313824740E-04
(PID.TID 0000.0001) %MON exf_swdown_max               =   2.5099991724673E+01
(PID.TID 0000.0001) %MON exf_swdown_min               =   0.0000000000000E+00
(PID.TID 0000.0001) %MON exf_swdown_mean              =   7.9590509122539E-01
(PID.TID 0000.0001) %MON exf_swdown_sd                =   2.5786691933019E+00
(PID.TID 0000.0001) %MON exf_swdown_del2              =   5.1865904249711E-04
(PID.TID 0000.0001) %MON exf_lwdown_max               =   4.0721473851200E+02
(PID.TID 0000.0001) %MON exf_lwdown_min               =   2.2903179615571E+02
(PID.TID 0000.0001) %MON exf_lwdown_mean              =   3.4549285440665E+02
(PID.TID 0000.0001) %MON exf_lwdown_sd                =   3.1394624564967E+01
(PID.TID 0000.0001) %MON exf_lwdown_del2              =   7.5714980100790E-02
(PID.TID 0000.0001) %MON exf_apressure_max            =   1.0277221071698E+05
(PID.TID 0000.0001) %MON exf_apressure_min            =   9.9939231869049E+04
(PID.TID 0000.0001) %MON exf_apressure_mean           =   1.0213142322169E+05
(PID.TID 0000.0001) %MON exf_apressure_sd             =   5.1031322894321E+02
(PID.TID 0000.0001) %MON exf_apressure_del2           =   2.2349416188003E+01
(PID.TID 0000.0001) %MON exf_runoff_max               =   4.4374798712073E-08
(PID.TID 0000.0001) %MON exf_runoff_min               =   0.0000000000000E+00
(PID.TID 0000.0001) %MON exf_runoff_mean              =   1.5884795719908E-09
(PID.TID 0000.0001) %MON exf_runoff_sd                =   5.3901959599983E-09
(PID.TID 0000.0001) %MON exf_runoff_del2              =   1.2741189756369E-12
(PID.TID 0000.0001) // =======================================================
(PID.TID 0000.0001) // End MONITOR EXF statistics
(PID.TID 0000.0001) // =======================================================
 cg2d: Sum(rhs),rhsMax =   2.95181185606381E+02  3.59375990069256E-02
(PID.TID 0000.0001)      cg2d_init_res =   2.15421603658122E+00
(PID.TID 0000.0001)      cg2d_iters(min,last) =      -1     317
(PID.TID 0000.0001)      cg2d_last_res =   6.92674615422274E-12
(PID.TID 0000.0001) // =======================================================
(PID.TID 0000.0001) // Begin MONITOR dynamic field statistics
(PID.TID 0000.0001) // =======================================================
(PID.TID 0000.0001) %MON time_tsnumber                =                     4
(PID.TID 0000.0001) %MON time_secondsf                =   9.6000000000000E+02
(PID.TID 0000.0001) %MON dynstat_eta_max              =   1.0215266883931E+00
(PID.TID 0000.0001) %MON dynstat_eta_min              =  -1.4970262735468E+00
(PID.TID 0000.0001) %MON dynstat_eta_mean             =  -1.0038256420190E-02
(PID.TID 0000.0001) %MON dynstat_eta_sd               =   1.5063257501385E-01
(PID.TID 0000.0001) %MON dynstat_eta_del2             =   2.7416547717103E-06
(PID.TID 0000.0001) %MON dynstat_uvel_max             =   1.2952397946197E+00
(PID.TID 0000.0001) %MON dynstat_uvel_min             =  -9.5998382568722E-01
(PID.TID 0000.0001) %MON dynstat_uvel_mean            =   3.5004925700175E-03
(PID.TID 0000.0001) %MON dynstat_uvel_sd              =   5.2384192574295E-02
(PID.TID 0000.0001) %MON dynstat_uvel_del2            =   4.6529575188883E-07
(PID.TID 0000.0001) %MON dynstat_vvel_max             =   2.0516105064972E+00
(PID.TID 0000.0001) %MON dynstat_vvel_min             =  -9.0194161993318E-01
(PID.TID 0000.0001) %MON dynstat_vvel_mean            =  -1.9961939266654E-03
(PID.TID 0000.0001) %MON dynstat_vvel_sd              =   4.8283974742061E-02
(PID.TID 0000.0001) %MON dynstat_vvel_del2            =   4.2482706117512E-07
(PID.TID 0000.0001) %MON dynstat_wvel_max             =   3.7217368816386E-02
(PID.TID 0000.0001) %MON dynstat_wvel_min             =  -3.1705003686814E-02
(PID.TID 0000.0001) %MON dynstat_wvel_mean            =  -6.7548297683261E-06
(PID.TID 0000.0001) %MON dynstat_wvel_sd              =   5.8881312430020E-04
(PID.TID 0000.0001) %MON dynstat_wvel_del2            =   8.5576363558868E-08
(PID.TID 0000.0001) %MON dynstat_theta_max            =   2.6140197518974E+01
(PID.TID 0000.0001) %MON dynstat_theta_min            =   1.4688639503517E+00
(PID.TID 0000.0001) %MON dynstat_theta_mean           =   5.5098514500031E+00
(PID.TID 0000.0001) %MON dynstat_theta_sd             =   4.7734261353687E+00
(PID.TID 0000.0001) %MON dynstat_theta_del2           =   4.0045095678820E-06
(PID.TID 0000.0001) %MON dynstat_salt_max             =   3.9178859441689E+01
(PID.TID 0000.0001) %MON dynstat_salt_min             =   3.3092756422358E+01
(PID.TID 0000.0001) %MON dynstat_salt_mean            =   3.5173368951384E+01
(PID.TID 0000.0001) %MON dynstat_salt_sd              =   3.7891154890293E-01
(PID.TID 0000.0001) %MON dynstat_salt_del2            =   4.9943608032272E-07
(PID.TID 0000.0001) %MON dynstat_sst_max              =   2.6136842385519E+01
(PID.TID 0000.0001) %MON dynstat_sst_min              =   4.0360033824792E+00
(PID.TID 0000.0001) %MON dynstat_sst_mean             =   1.9644174955759E+01
(PID.TID 0000.0001) %MON dynstat_sst_sd               =   3.6386040067709E+00
(PID.TID 0000.0001) %MON dynstat_sst_del2             =   1.9062248712990E-05
(PID.TID 0000.0001) %MON dynstat_sss_max              =   3.7335531978687E+01
(PID.TID 0000.0001) %MON dynstat_sss_min              =   3.3092756422358E+01
(PID.TID 0000.0001) %MON dynstat_sss_mean             =   3.5868122034616E+01
(PID.TID 0000.0001) %MON dynstat_sss_sd               =   4.8720393098412E-01
(PID.TID 0000.0001) %MON dynstat_sss_del2             =   4.9833500510413E-06
(PID.TID 0000.0001) %MON forcing_qnet_max             =   1.1795915825390E+03
(PID.TID 0000.0001) %MON forcing_qnet_min             =  -3.3645143564455E+02
(PID.TID 0000.0001) %MON forcing_qnet_mean            =   2.2288931642359E+02
(PID.TID 0000.0001) %MON forcing_qnet_sd              =   1.5494274889394E+02
(PID.TID 0000.0001) %MON forcing_qnet_del2            =   1.6305534748839E-03
(PID.TID 0000.0001) %MON forcing_qsw_max              =   0.0000000000000E+00
(PID.TID 0000.0001) %MON forcing_qsw_min              =  -2.2589992552206E+01
(PID.TID 0000.0001) %MON forcing_qsw_mean             =  -7.1631458210286E-01
(PID.TID 0000.0001) %MON forcing_qsw_sd               =   2.3208022739717E+00
(PID.TID 0000.0001) %MON forcing_qsw_del2             =   8.0191561814194E-06
(PID.TID 0000.0001) %MON forcing_empmr_max            =   2.4666005614139E-04
(PID.TID 0000.0001) %MON forcing_empmr_min            =  -8.5737245277305E-04
(PID.TID 0000.0001) %MON forcing_empmr_mean           =   1.5504602362073E-05
(PID.TID 0000.0001) %MON forcing_empmr_sd             =   1.1167516891752E-04
(PID.TID 0000.0001) %MON forcing_empmr_del2           =   7.6502048215932E-10
(PID.TID 0000.0001) %MON forcing_fu_max               =   1.1706045884849E+00
(PID.TID 0000.0001) %MON forcing_fu_min               =  -3.5542011313464E-01
(PID.TID 0000.0001) %MON forcing_fu_mean              =   7.2494718981698E-02
(PID.TID 0000.0001) %MON forcing_fu_sd                =   1.6918838506645E-01
(PID.TID 0000.0001) %MON forcing_fu_del2              =   2.5753740121871E-07
(PID.TID 0000.0001) %MON forcing_fv_max               =   4.9559371439017E-01
(PID.TID 0000.0001) %MON forcing_fv_min               =  -4.8974587412263E-01
(PID.TID 0000.0001) %MON forcing_fv_mean              =   2.0850600873406E-02
(PID.TID 0000.0001) %MON forcing_fv_sd                =   1.1720449442925E-01
(PID.TID 0000.0001) %MON forcing_fv_del2              =   2.0490133649344E-07
(PID.TID 0000.0001) %MON trAdv_CFL_u_max              =   7.8583186468491E-02
(PID.TID 0000.0001) %MON trAdv_CFL_v_max              =   1.2962774600461E-01
(PID.TID 0000.0001) %MON trAdv_CFL_w_max              =   4.8361158404276E-01
(PID.TID 0000.0001) %MON advcfl_uvel_max              =   7.8583185398510E-02
(PID.TID 0000.0001) %MON advcfl_vvel_max              =   1.2966546267318E-01
(PID.TID 0000.0001) %MON advcfl_wvel_max              =   4.8504663325357E-01
(PID.TID 0000.0001) %MON advcfl_W_hf_max              =   4.8649022442397E-01
(PID.TID 0000.0001) %MON pe_b_mean                    =  -2.1467467046134E-04
(PID.TID 0000.0001) %MON ke_max                       =   1.8768916398930E+00
(PID.TID 0000.0001) %MON ke_mean                      =   2.5269938255296E-03
(PID.TID 0000.0001) %MON ke_vol                       =   4.5818637279720E+16
(PID.TID 0000.0001) %MON vort_r_min                   =  -4.8855182706195E-04
(PID.TID 0000.0001) %MON vort_r_max                   =   5.7641906489920E-04
(PID.TID 0000.0001) %MON vort_a_mean                  =   8.2147628585905E-05
(PID.TID 0000.0001) %MON vort_a_sd                    =   1.0123573401638E-05
(PID.TID 0000.0001) %MON vort_p_mean                  =   8.4848850075804E-05
(PID.TID 0000.0001) %MON vort_p_sd                    =   3.4975295440802E-05
(PID.TID 0000.0001) %MON surfExpan_theta_mean         =  -5.3499159661036E-05
(PID.TID 0000.0001) %MON surfExpan_salt_mean          =  -4.5653847556123E-04
(PID.TID 0000.0001) // =======================================================
(PID.TID 0000.0001) // End MONITOR dynamic field statistics
(PID.TID 0000.0001) // =======================================================
(PID.TID 0000.0001) // =======================================================
(PID.TID 0000.0001) // Begin OBCS MONITOR field statistics
(PID.TID 0000.0001) // =======================================================
(PID.TID 0000.0001) %MON obc_N_vVel_max               =   6.9553192130751E-01
(PID.TID 0000.0001) %MON obc_N_vVel_min               =  -3.2224932600846E-01
(PID.TID 0000.0001) %MON obc_N_vVel_mean              =   1.3451067297277E-02
(PID.TID 0000.0001) %MON obc_N_vVel_sd                =   6.4688179853585E-02
(PID.TID 0000.0001) %MON obc_N_vVel_Int               =   1.9255316447359E+08
(PID.TID 0000.0001) %MON obc_S_vVel_max               =   2.0516105064972E+00
(PID.TID 0000.0001) %MON obc_S_vVel_min               =  -2.6233395479551E-01
(PID.TID 0000.0001) %MON obc_S_vVel_mean              =   1.3372914318189E-03
(PID.TID 0000.0001) %MON obc_S_vVel_sd                =   3.5879578143183E-02
(PID.TID 0000.0001) %MON obc_S_vVel_Int               =   4.0711028892322E+07
(PID.TID 0000.0001) %MON obc_N_theta_max              =   1.6390508636415E+01
(PID.TID 0000.0001) %MON obc_N_theta_min              =   1.8895909232471E+00
(PID.TID 0000.0001) %MON obc_N_theta_mean             =   5.1589509652887E+00
(PID.TID 0000.0001) %MON obc_N_theta_sd               =   3.4826967698724E+00
(PID.TID 0000.0001) %MON obc_S_theta_max              =   2.5544530313689E+01
(PID.TID 0000.0001) %MON obc_S_theta_min              =   1.4632972260357E+00
(PID.TID 0000.0001) %MON obc_S_theta_mean             =   5.4595545601130E+00
(PID.TID 0000.0001) %MON obc_S_theta_sd               =   5.3559215504875E+00
(PID.TID 0000.0001) %MON obc_N_salt_max               =   3.5910866014505E+01
(PID.TID 0000.0001) %MON obc_N_salt_min               =   3.3295036080578E+01
(PID.TID 0000.0001) %MON obc_N_salt_mean              =   3.5114563132403E+01
(PID.TID 0000.0001) %MON obc_N_salt_sd                =   3.0984885181404E-01
(PID.TID 0000.0001) %MON obc_S_salt_max               =   3.7318319093085E+01
(PID.TID 0000.0001) %MON obc_S_salt_min               =   3.4844694522698E+01
(PID.TID 0000.0001) %MON obc_S_salt_mean              =   3.5168372651167E+01
(PID.TID 0000.0001) %MON obc_S_salt_sd                =   4.5716970351760E-01
(PID.TID 0000.0001) // =======================================================
(PID.TID 0000.0001) // End OBCS MONITOR field statistics
(PID.TID 0000.0001) // =======================================================
(PID.TID 0000.0001) // =======================================================
(PID.TID 0000.0001) // Begin MONITOR EXF statistics
(PID.TID 0000.0001) // =======================================================
(PID.TID 0000.0001) %MON exf_tsnumber                 =                     4
(PID.TID 0000.0001) %MON exf_time_sec                 =   9.6000000000000E+02
(PID.TID 0000.0001) %MON exf_ustress_max              =   1.1621576167638E+00
(PID.TID 0000.0001) %MON exf_ustress_min              =  -3.5355893708530E-01
(PID.TID 0000.0001) %MON exf_ustress_mean             =   7.2155591714744E-02
(PID.TID 0000.0001) %MON exf_ustress_sd               =   1.6795977788856E-01
(PID.TID 0000.0001) %MON exf_ustress_del2             =   3.0506784956272E-07
(PID.TID 0000.0001) %MON exf_vstress_max              =   4.8052625384533E-01
(PID.TID 0000.0001) %MON exf_vstress_min              =  -4.8330406602264E-01
(PID.TID 0000.0001) %MON exf_vstress_mean             =   2.0659543975600E-02
(PID.TID 0000.0001) %MON exf_vstress_sd               =   1.1579320782782E-01
(PID.TID 0000.0001) %MON exf_vstress_del2             =   2.2109271955699E-07
(PID.TID 0000.0001) %MON exf_hflux_max                =   1.1599747822970E+03
(PID.TID 0000.0001) %MON exf_hflux_min                =  -3.1677851099433E+02
(PID.TID 0000.0001) %MON exf_hflux_mean               =   2.2100344739561E+02
(PID.TID 0000.0001) %MON exf_hflux_sd                 =   1.4980687926347E+02
(PID.TID 0000.0001) %MON exf_hflux_del2               =   6.0340397956713E-02
(PID.TID 0000.0001) %MON exf_sflux_max                =   2.4646223543151E-07
(PID.TID 0000.0001) %MON exf_sflux_min                =  -8.6331652759332E-07
(PID.TID 0000.0001) %MON exf_sflux_mean               =   1.5448837747727E-08
(PID.TID 0000.0001) %MON exf_sflux_sd                 =   1.1164125329225E-07
(PID.TID 0000.0001) %MON exf_sflux_del2               =   2.5667549368833E-11
(PID.TID 0000.0001) %MON exf_uwind_max                =   2.1879918059732E+01
(PID.TID 0000.0001) %MON exf_uwind_min                =  -1.4194169294345E+01
(PID.TID 0000.0001) %MON exf_uwind_mean               =   2.7077380753852E+00
(PID.TID 0000.0001) %MON exf_uwind_sd                 =   6.7057871536430E+00
(PID.TID 0000.0001) %MON exf_uwind_del2               =   1.6134312917428E-03
(PID.TID 0000.0001) %MON exf_vwind_max                =   1.5008473490947E+01
(PID.TID 0000.0001) %MON exf_vwind_min                =  -1.2825816401809E+01
(PID.TID 0000.0001) %MON exf_vwind_mean               =   1.1042193228438E+00
(PID.TID 0000.0001) %MON exf_vwind_sd                 =   5.5835676681217E+00
(PID.TID 0000.0001) %MON exf_vwind_del2               =   1.2790985269181E-03
(PID.TID 0000.0001) %MON exf_wspeed_max               =   2.2561579374194E+01
(PID.TID 0000.0001) %MON exf_wspeed_min               =   1.2149789797753E-02
(PID.TID 0000.0001) %MON exf_wspeed_mean              =   8.0254257389599E+00
(PID.TID 0000.0001) %MON exf_wspeed_sd                =   4.5041643798523E+00
(PID.TID 0000.0001) %MON exf_wspeed_del2              =   2.0587953764327E-03
(PID.TID 0000.0001) %MON exf_atemp_max                =   2.9783024383378E+02
(PID.TID 0000.0001) %MON exf_atemp_min                =   2.7465501702402E+02
(PID.TID 0000.0001) %MON exf_atemp_mean               =   2.9105314127550E+02
(PID.TID 0000.0001) %MON exf_atemp_sd                 =   3.9496854103699E+00
(PID.TID 0000.0001) %MON exf_atemp_del2               =   3.9571308323976E-03
(PID.TID 0000.0001) %MON exf_aqh_max                  =   1.5808860084162E-02
(PID.TID 0000.0001) %MON exf_aqh_min                  =   2.7204188071823E-03
(PID.TID 0000.0001) %MON exf_aqh_mean                 =   1.0096510980574E-02
(PID.TID 0000.0001) %MON exf_aqh_sd                   =   2.5955149765624E-03
(PID.TID 0000.0001) %MON exf_aqh_del2                 =   2.2614593350148E-06
(PID.TID 0000.0001) %MON exf_lwflux_max               =   1.6290229608344E+02
(PID.TID 0000.0001) %MON exf_lwflux_min               =  -2.8158682429187E+01
(PID.TID 0000.0001) %MON exf_lwflux_mean              =   6.9450863767173E+01
(PID.TID 0000.0001) %MON exf_lwflux_sd                =   2.7236992656465E+01
(PID.TID 0000.0001) %MON exf_lwflux_del2              =   1.6293034641846E-02
(PID.TID 0000.0001) %MON exf_evap_max                 =   2.7073225637680E-07
(PID.TID 0000.0001) %MON exf_evap_min                 =  -8.8781546682272E-08
(PID.TID 0000.0001) %MON exf_evap_mean                =   5.1313579953158E-08
(PID.TID 0000.0001) %MON exf_evap_sd                  =   3.8272650039758E-08
(PID.TID 0000.0001) %MON exf_evap_del2                =   1.4425287256725E-11
(PID.TID 0000.0001) %MON exf_precip_max               =   8.4898273906930E-07
(PID.TID 0000.0001) %MON exf_precip_min               =   0.0000000000000E+00
(PID.TID 0000.0001) %MON exf_precip_mean              =   3.4276262633440E-08
(PID.TID 0000.0001) %MON exf_precip_sd                =   9.7879424515428E-08
(PID.TID 0000.0001) %MON exf_precip_del2              =   2.3804698561654E-11
(PID.TID 0000.0001) %MON exf_swflux_max               =   0.0000000000000E+00
(PID.TID 0000.0001) %MON exf_swflux_min               =  -2.1431531395682E+01
(PID.TID 0000.0001) %MON exf_swflux_mean              =  -6.7958050096937E-01
(PID.TID 0000.0001) %MON exf_swflux_sd                =   2.2017867727424E+00
(PID.TID 0000.0001) %MON exf_swflux_del2              =   4.4285502859369E-04
(PID.TID 0000.0001) %MON exf_swdown_max               =   2.3812812661869E+01
(PID.TID 0000.0001) %MON exf_swdown_min               =   0.0000000000000E+00
(PID.TID 0000.0001) %MON exf_swdown_mean              =   7.5508944552153E-01
(PID.TID 0000.0001) %MON exf_swdown_sd                =   2.4464297474915E+00
(PID.TID 0000.0001) %MON exf_swdown_del2              =   4.9206114288188E-04
(PID.TID 0000.0001) %MON exf_lwdown_max               =   4.0731649684535E+02
(PID.TID 0000.0001) %MON exf_lwdown_min               =   2.2889176151021E+02
(PID.TID 0000.0001) %MON exf_lwdown_mean              =   3.4549447777991E+02
(PID.TID 0000.0001) %MON exf_lwdown_sd                =   3.1444770392902E+01
(PID.TID 0000.0001) %MON exf_lwdown_del2              =   7.5715578587672E-02
(PID.TID 0000.0001) %MON exf_apressure_max            =   1.0277116233939E+05
(PID.TID 0000.0001) %MON exf_apressure_min            =   9.9945370741853E+04
(PID.TID 0000.0001) %MON exf_apressure_mean           =   1.0213088106589E+05
(PID.TID 0000.0001) %MON exf_apressure_sd             =   5.0940175594918E+02
(PID.TID 0000.0001) %MON exf_apressure_del2           =   2.2349295692082E+01
(PID.TID 0000.0001) %MON exf_runoff_max               =   4.4374798712073E-08
(PID.TID 0000.0001) %MON exf_runoff_min               =   0.0000000000000E+00
(PID.TID 0000.0001) %MON exf_runoff_mean              =   1.5884795719908E-09
(PID.TID 0000.0001) %MON exf_runoff_sd                =   5.3901959599983E-09
(PID.TID 0000.0001) %MON exf_runoff_del2              =   1.2741189756369E-12
(PID.TID 0000.0001) // =======================================================
(PID.TID 0000.0001) // End MONITOR EXF statistics
(PID.TID 0000.0001) // =======================================================
 cg2d: Sum(rhs),rhsMax =   4.03838863826266E+02  3.82477423283281E-02
(PID.TID 0000.0001)      cg2d_init_res =   1.84390732221954E+00
(PID.TID 0000.0001)      cg2d_iters(min,last) =      -1     316
(PID.TID 0000.0001)      cg2d_last_res =   6.73725722860558E-12
(PID.TID 0000.0001) // =======================================================
(PID.TID 0000.0001) // Begin MONITOR dynamic field statistics
(PID.TID 0000.0001) // =======================================================
(PID.TID 0000.0001) %MON time_tsnumber                =                     5
(PID.TID 0000.0001) %MON time_secondsf                =   1.2000000000000E+03
(PID.TID 0000.0001) %MON dynstat_eta_max              =   1.0445996673164E+00
(PID.TID 0000.0001) %MON dynstat_eta_min              =  -1.4269721074337E+00
(PID.TID 0000.0001) %MON dynstat_eta_mean             =  -1.3733389068137E-02
(PID.TID 0000.0001) %MON dynstat_eta_sd               =   1.7049990943594E-01
(PID.TID 0000.0001) %MON dynstat_eta_del2             =   2.5002749347130E-06
(PID.TID 0000.0001) %MON dynstat_uvel_max             =   1.2986002373712E+00
(PID.TID 0000.0001) %MON dynstat_uvel_min             =  -9.0764108239480E-01
(PID.TID 0000.0001) %MON dynstat_uvel_mean            =   3.3218636620025E-03
(PID.TID 0000.0001) %MON dynstat_uvel_sd              =   5.2401970753804E-02
(PID.TID 0000.0001) %MON dynstat_uvel_del2            =   4.6893872863291E-07
(PID.TID 0000.0001) %MON dynstat_vvel_max             =   2.1154440145923E+00
(PID.TID 0000.0001) %MON dynstat_vvel_min             =  -9.0565928347682E-01
(PID.TID 0000.0001) %MON dynstat_vvel_mean            =  -2.3694671121476E-03
(PID.TID 0000.0001) %MON dynstat_vvel_sd              =   4.8401177847654E-02
(PID.TID 0000.0001) %MON dynstat_vvel_del2            =   4.2812654340907E-07
(PID.TID 0000.0001) %MON dynstat_wvel_max             =   3.6947132107618E-02
(PID.TID 0000.0001) %MON dynstat_wvel_min             =  -3.1007934931188E-02
(PID.TID 0000.0001) %MON dynstat_wvel_mean            =  -7.9621677630852E-06
(PID.TID 0000.0001) %MON dynstat_wvel_sd              =   5.8735684221323E-04
(PID.TID 0000.0001) %MON dynstat_wvel_del2            =   8.0884734357287E-08
(PID.TID 0000.0001) %MON dynstat_theta_max            =   2.6139685723361E+01
(PID.TID 0000.0001) %MON dynstat_theta_min            =   1.4688640601524E+00
(PID.TID 0000.0001) %MON dynstat_theta_mean           =   5.5098480268581E+00
(PID.TID 0000.0001) %MON dynstat_theta_sd             =   4.7734039411190E+00
(PID.TID 0000.0001) %MON dynstat_theta_del2           =   4.0084057283572E-06
(PID.TID 0000.0001) %MON dynstat_salt_max             =   3.9176417301698E+01
(PID.TID 0000.0001) %MON dynstat_salt_min             =   3.3093751714762E+01
(PID.TID 0000.0001) %MON dynstat_salt_mean            =   3.5173368006878E+01
(PID.TID 0000.0001) %MON dynstat_salt_sd              =   3.7891098268441E-01
(PID.TID 0000.0001) %MON dynstat_salt_del2            =   5.0259627825848E-07
(PID.TID 0000.0001) %MON dynstat_sst_max              =   2.6135953828503E+01
(PID.TID 0000.0001) %MON dynstat_sst_min              =   4.0224908396396E+00
(PID.TID 0000.0001) %MON dynstat_sst_mean             =   1.9643144872752E+01
(PID.TID 0000.0001) %MON dynstat_sst_sd               =   3.6385869876745E+00
(PID.TID 0000.0001) %MON dynstat_sst_del2             =   1.9066357392216E-05
(PID.TID 0000.0001) %MON dynstat_sss_max              =   3.7335607268312E+01
(PID.TID 0000.0001) %MON dynstat_sss_min              =   3.3093751714762E+01
(PID.TID 0000.0001) %MON dynstat_sss_mean             =   3.5868159674608E+01
(PID.TID 0000.0001) %MON dynstat_sss_sd               =   4.8720282973880E-01
(PID.TID 0000.0001) %MON dynstat_sss_del2             =   4.9725704520019E-06
(PID.TID 0000.0001) %MON forcing_qnet_max             =   1.1777643682844E+03
(PID.TID 0000.0001) %MON forcing_qnet_min             =  -3.3554099817112E+02
(PID.TID 0000.0001) %MON forcing_qnet_mean            =   2.2262035719032E+02
(PID.TID 0000.0001) %MON forcing_qnet_sd              =   1.5439125904263E+02
(PID.TID 0000.0001) %MON forcing_qnet_del2            =   1.6243316629502E-03
(PID.TID 0000.0001) %MON forcing_qsw_max              =   0.0000000000000E+00
(PID.TID 0000.0001) %MON forcing_qsw_min              =  -2.1431531395682E+01
(PID.TID 0000.0001) %MON forcing_qsw_mean             =  -6.7958050096937E-01
(PID.TID 0000.0001) %MON forcing_qsw_sd               =   2.2017867727424E+00
(PID.TID 0000.0001) %MON forcing_qsw_del2             =   7.6079174028850E-06
(PID.TID 0000.0001) %MON forcing_empmr_max            =   2.4646223543151E-04
(PID.TID 0000.0001) %MON forcing_empmr_min            =  -8.6331652759332E-04
(PID.TID 0000.0001) %MON forcing_empmr_mean           =   1.5448837747727E-05
(PID.TID 0000.0001) %MON forcing_empmr_sd             =   1.1164125329225E-04
(PID.TID 0000.0001) %MON forcing_empmr_del2           =   7.7143924582601E-10
(PID.TID 0000.0001) %MON forcing_fu_max               =   1.1608952446647E+00
(PID.TID 0000.0001) %MON forcing_fu_min               =  -3.5352660809564E-01
(PID.TID 0000.0001) %MON forcing_fu_mean              =   7.2217249328606E-02
(PID.TID 0000.0001) %MON forcing_fu_sd                =   1.6802604405600E-01
(PID.TID 0000.0001) %MON forcing_fu_del2              =   2.5317548531972E-07
(PID.TID 0000.0001) %MON forcing_fv_max               =   4.8076967802302E-01
(PID.TID 0000.0001) %MON forcing_fv_min               =  -4.8548812397561E-01
(PID.TID 0000.0001) %MON forcing_fv_mean              =   2.0669100196330E-02
(PID.TID 0000.0001) %MON forcing_fv_sd                =   1.1594401742077E-01
(PID.TID 0000.0001) %MON forcing_fv_del2              =   1.9950788304474E-07
(PID.TID 0000.0001) %MON trAdv_CFL_u_max              =   7.8787067093886E-02
(PID.TID 0000.0001) %MON trAdv_CFL_v_max              =   1.3366096466269E-01
(PID.TID 0000.0001) %MON trAdv_CFL_w_max              =   4.5715374109893E-01
(PID.TID 0000.0001) %MON advcfl_uvel_max              =   7.8787066021129E-02
(PID.TID 0000.0001) %MON advcfl_vvel_max              =   1.3369985484216E-01
(PID.TID 0000.0001) %MON advcfl_wvel_max              =   4.5851028039003E-01
(PID.TID 0000.0001) %MON advcfl_W_hf_max              =   4.5987489431976E-01
(PID.TID 0000.0001) %MON pe_b_mean                    =  -2.9635164971668E-04
(PID.TID 0000.0001) %MON ke_max                       =   2.0244802256089E+00
(PID.TID 0000.0001) %MON ke_mean                      =   2.5337574376198E-03
(PID.TID 0000.0001) %MON ke_vol                       =   4.5818637279720E+16
(PID.TID 0000.0001) %MON vort_r_min                   =  -4.9997019495774E-04
(PID.TID 0000.0001) %MON vort_r_max                   =   5.5087618223685E-04
(PID.TID 0000.0001) %MON vort_a_mean                  =   8.2147627825489E-05
(PID.TID 0000.0001) %MON vort_a_sd                    =   1.0125589494755E-05
(PID.TID 0000.0001) %MON vort_p_mean                  =   8.4848849290384E-05
(PID.TID 0000.0001) %MON vort_p_sd                    =   3.4973062886660E-05
(PID.TID 0000.0001) %MON surfExpan_theta_mean         =  -9.5306416829217E-05
(PID.TID 0000.0001) %MON surfExpan_salt_mean          =  -5.2889424127494E-04
(PID.TID 0000.0001) // =======================================================
(PID.TID 0000.0001) // End MONITOR dynamic field statistics
(PID.TID 0000.0001) // =======================================================
(PID.TID 0000.0001) // =======================================================
(PID.TID 0000.0001) // Begin OBCS MONITOR field statistics
(PID.TID 0000.0001) // =======================================================
(PID.TID 0000.0001) %MON obc_N_vVel_max               =   6.9543718136846E-01
(PID.TID 0000.0001) %MON obc_N_vVel_min               =  -3.2241212391701E-01
(PID.TID 0000.0001) %MON obc_N_vVel_mean              =   1.3501340616437E-02
(PID.TID 0000.0001) %MON obc_N_vVel_sd                =   6.4680224712309E-02
(PID.TID 0000.0001) %MON obc_N_vVel_Int               =   1.9327283128359E+08
(PID.TID 0000.0001) %MON obc_S_vVel_max               =   2.1154440145923E+00
(PID.TID 0000.0001) %MON obc_S_vVel_min               =  -2.6245505327119E-01
(PID.TID 0000.0001) %MON obc_S_vVel_mean              =   6.3302524519791E-04
(PID.TID 0000.0001) %MON obc_S_vVel_sd                =   3.5920573633926E-02
(PID.TID 0000.0001) %MON obc_S_vVel_Int               =   1.9271124029987E+07
(PID.TID 0000.0001) %MON obc_N_theta_max              =   1.6390420534228E+01
(PID.TID 0000.0001) %MON obc_N_theta_min              =   1.8895909723125E+00
(PID.TID 0000.0001) %MON obc_N_theta_mean             =   5.1589435811386E+00
(PID.TID 0000.0001) %MON obc_N_theta_sd               =   3.4826874778161E+00
(PID.TID 0000.0001) %MON obc_S_theta_max              =   2.5544427564909E+01
(PID.TID 0000.0001) %MON obc_S_theta_min              =   1.4632976223230E+00
(PID.TID 0000.0001) %MON obc_S_theta_mean             =   5.4595537550885E+00
(PID.TID 0000.0001) %MON obc_S_theta_sd               =   5.3559176792685E+00
(PID.TID 0000.0001) %MON obc_N_salt_max               =   3.5910865606142E+01
(PID.TID 0000.0001) %MON obc_N_salt_min               =   3.3295041583212E+01
(PID.TID 0000.0001) %MON obc_N_salt_mean              =   3.5114562836417E+01
(PID.TID 0000.0001) %MON obc_N_salt_sd                =   3.0984873248609E-01
(PID.TID 0000.0001) %MON obc_S_salt_max               =   3.7318312208701E+01
(PID.TID 0000.0001) %MON obc_S_salt_min               =   3.4844694574919E+01
(PID.TID 0000.0001) %MON obc_S_salt_mean              =   3.5168372579251E+01
(PID.TID 0000.0001) %MON obc_S_salt_sd                =   4.5716935243014E-01
(PID.TID 0000.0001) // =======================================================
(PID.TID 0000.0001) // End OBCS MONITOR field statistics
(PID.TID 0000.0001) // =======================================================
(PID.TID 0000.0001) // =======================================================
(PID.TID 0000.0001) // Begin MONITOR EXF statistics
(PID.TID 0000.0001) // =======================================================
(PID.TID 0000.0001) %MON exf_tsnumber                 =                     5
(PID.TID 0000.0001) %MON exf_time_sec                 =   1.2000000000000E+03
(PID.TID 0000.0001) %MON exf_ustress_max              =   1.1527224450522E+00
(PID.TID 0000.0001) %MON exf_ustress_min              =  -3.5178882725608E-01
(PID.TID 0000.0001) %MON exf_ustress_mean             =   7.1901677245838E-02
(PID.TID 0000.0001) %MON exf_ustress_sd               =   1.6688428406424E-01
(PID.TID 0000.0001) %MON exf_ustress_del2             =   3.0066465459506E-07
(PID.TID 0000.0001) %MON exf_vstress_max              =   4.6599603280832E-01
(PID.TID 0000.0001) %MON exf_vstress_min              =  -4.7901629768456E-01
(PID.TID 0000.0001) %MON exf_vstress_mean             =   2.0496968638258E-02
(PID.TID 0000.0001) %MON exf_vstress_sd               =   1.1463160291213E-01
(PID.TID 0000.0001) %MON exf_vstress_del2             =   2.1751481696218E-07
(PID.TID 0000.0001) %MON exf_hflux_max                =   1.1584251464832E+03
(PID.TID 0000.0001) %MON exf_hflux_min                =  -3.1631397824079E+02
(PID.TID 0000.0001) %MON exf_hflux_mean               =   2.2076310501278E+02
(PID.TID 0000.0001) %MON exf_hflux_sd                 =   1.4931318471817E+02
(PID.TID 0000.0001) %MON exf_hflux_del2               =   6.0232684095777E-02
(PID.TID 0000.0001) %MON exf_sflux_max                =   2.4632569484198E-07
(PID.TID 0000.0001) %MON exf_sflux_min                =  -8.6926215634298E-07
(PID.TID 0000.0001) %MON exf_sflux_mean               =   1.5399798149639E-08
(PID.TID 0000.0001) %MON exf_sflux_sd                 =   1.1168357065205E-07
(PID.TID 0000.0001) %MON exf_sflux_del2               =   2.5681558212760E-11
(PID.TID 0000.0001) %MON exf_uwind_max                =   2.1829285729843E+01
(PID.TID 0000.0001) %MON exf_uwind_min                =  -1.4166882204222E+01
(PID.TID 0000.0001) %MON exf_uwind_mean               =   2.7089761346997E+00
(PID.TID 0000.0001) %MON exf_uwind_sd                 =   6.6931117258967E+00
(PID.TID 0000.0001) %MON exf_uwind_del2               =   1.6110453657890E-03
(PID.TID 0000.0001) %MON exf_vwind_max                =   1.4770095585623E+01
(PID.TID 0000.0001) %MON exf_vwind_min                =  -1.2770593280235E+01
(PID.TID 0000.0001) %MON exf_vwind_mean               =   1.1051561695365E+00
(PID.TID 0000.0001) %MON exf_vwind_sd                 =   5.5617880672859E+00
(PID.TID 0000.0001) %MON exf_vwind_del2               =   1.2742694060413E-03
(PID.TID 0000.0001) %MON exf_wspeed_max               =   2.2481136057282E+01
(PID.TID 0000.0001) %MON exf_wspeed_min               =   2.6308029819183E-03
(PID.TID 0000.0001) %MON exf_wspeed_mean              =   8.0069459002797E+00
(PID.TID 0000.0001) %MON exf_wspeed_sd                =   4.4922121820069E+00
(PID.TID 0000.0001) %MON exf_wspeed_del2              =   2.0539311426624E-03
(PID.TID 0000.0001) %MON exf_atemp_max                =   2.9781885111307E+02
(PID.TID 0000.0001) %MON exf_atemp_min                =   2.7462449209021E+02
(PID.TID 0000.0001) %MON exf_atemp_mean               =   2.9105083612563E+02
(PID.TID 0000.0001) %MON exf_atemp_sd                 =   3.9482419556817E+00
(PID.TID 0000.0001) %MON exf_atemp_del2               =   3.9565320330937E-03
(PID.TID 0000.0001) %MON exf_aqh_max                  =   1.5804994717449E-02
(PID.TID 0000.0001) %MON exf_aqh_min                  =   2.7213935997398E-03
(PID.TID 0000.0001) %MON exf_aqh_mean                 =   1.0095060249629E-02
(PID.TID 0000.0001) %MON exf_aqh_sd                   =   2.5938046676964E-03
(PID.TID 0000.0001) %MON exf_aqh_del2                 =   2.2609660411538E-06
(PID.TID 0000.0001) %MON exf_lwflux_max               =   1.6287901026602E+02
(PID.TID 0000.0001) %MON exf_lwflux_min               =  -2.7952950208910E+01
(PID.TID 0000.0001) %MON exf_lwflux_mean              =   6.9443594575168E+01
(PID.TID 0000.0001) %MON exf_lwflux_sd                =   2.7268370406289E+01
(PID.TID 0000.0001) %MON exf_lwflux_del2              =   1.6294187364682E-02
(PID.TID 0000.0001) %MON exf_evap_max                 =   2.7055565281508E-07
(PID.TID 0000.0001) %MON exf_evap_min                 =  -8.8348500598619E-08
(PID.TID 0000.0001) %MON exf_evap_mean                =   5.1223173854747E-08
(PID.TID 0000.0001) %MON exf_evap_sd                  =   3.8109909793502E-08
(PID.TID 0000.0001) %MON exf_evap_del2                =   1.4388100696469E-11
(PID.TID 0000.0001) %MON exf_precip_max               =   8.5488847082008E-07
(PID.TID 0000.0001) %MON exf_precip_min               =   0.0000000000000E+00
(PID.TID 0000.0001) %MON exf_precip_mean              =   3.4234896133117E-08
(PID.TID 0000.0001) %MON exf_precip_sd                =   9.8032922153897E-08
(PID.TID 0000.0001) %MON exf_precip_del2              =   2.3840664004299E-11
(PID.TID 0000.0001) %MON exf_swflux_max               =   0.0000000000000E+00
(PID.TID 0000.0001) %MON exf_swflux_min               =  -2.0273070239159E+01
(PID.TID 0000.0001) %MON exf_swflux_mean              =  -6.4284641983590E-01
(PID.TID 0000.0001) %MON exf_swflux_sd                =   2.0827712715130E+00
(PID.TID 0000.0001) %MON exf_swflux_del2              =   4.1891691893998E-04
(PID.TID 0000.0001) %MON exf_swdown_max               =   2.2525633599065E+01
(PID.TID 0000.0001) %MON exf_swdown_min               =   0.0000000000000E+00
(PID.TID 0000.0001) %MON exf_swdown_mean              =   7.1427379981766E-01
(PID.TID 0000.0001) %MON exf_swdown_sd                =   2.3141903016812E+00
(PID.TID 0000.0001) %MON exf_swdown_del2              =   4.6546324326664E-04
(PID.TID 0000.0001) %MON exf_lwdown_max               =   4.0741825517869E+02
(PID.TID 0000.0001) %MON exf_lwdown_min               =   2.2875172686470E+02
(PID.TID 0000.0001) %MON exf_lwdown_mean              =   3.4549610115318E+02
(PID.TID 0000.0001) %MON exf_lwdown_sd                =   3.1500366636830E+01
(PID.TID 0000.0001) %MON exf_lwdown_del2              =   7.5716296430279E-02
(PID.TID 0000.0001) %MON exf_apressure_max            =   1.0277011396180E+05
(PID.TID 0000.0001) %MON exf_apressure_min            =   9.9950828097267E+04
(PID.TID 0000.0001) %MON exf_apressure_mean           =   1.0213033891009E+05
(PID.TID 0000.0001) %MON exf_apressure_sd             =   5.0851065960769E+02
(PID.TID 0000.0001) %MON exf_apressure_del2           =   2.2349175220629E+01
(PID.TID 0000.0001) %MON exf_runoff_max               =   4.4374798712073E-08
(PID.TID 0000.0001) %MON exf_runoff_min               =   0.0000000000000E+00
(PID.TID 0000.0001) %MON exf_runoff_mean              =   1.5884795719908E-09
(PID.TID 0000.0001) %MON exf_runoff_sd                =   5.3901959599983E-09
(PID.TID 0000.0001) %MON exf_runoff_del2              =   1.2741189756369E-12
(PID.TID 0000.0001) // =======================================================
(PID.TID 0000.0001) // End MONITOR EXF statistics
(PID.TID 0000.0001) // =======================================================
 cg2d: Sum(rhs),rhsMax =   5.26202007567547E+02  4.80468586419329E-02
(PID.TID 0000.0001)      cg2d_init_res =   1.61173163164185E+00
(PID.TID 0000.0001)      cg2d_iters(min,last) =      -1     316
(PID.TID 0000.0001)      cg2d_last_res =   6.42864043173453E-12
(PID.TID 0000.0001) // =======================================================
(PID.TID 0000.0001) // Begin MONITOR dynamic field statistics
(PID.TID 0000.0001) // =======================================================
(PID.TID 0000.0001) %MON time_tsnumber                =                     6
(PID.TID 0000.0001) %MON time_secondsf                =   1.4400000000000E+03
(PID.TID 0000.0001) %MON dynstat_eta_max              =   1.0418534374538E+00
(PID.TID 0000.0001) %MON dynstat_eta_min              =  -1.3355231646333E+00
(PID.TID 0000.0001) %MON dynstat_eta_mean             =  -1.7894604867621E-02
(PID.TID 0000.0001) %MON dynstat_eta_sd               =   1.8736771743554E-01
(PID.TID 0000.0001) %MON dynstat_eta_del2             =   2.3875592638293E-06
(PID.TID 0000.0001) %MON dynstat_uvel_max             =   1.3005940598572E+00
(PID.TID 0000.0001) %MON dynstat_uvel_min             =  -8.0020947335024E-01
(PID.TID 0000.0001) %MON dynstat_uvel_mean            =   3.1202946920473E-03
(PID.TID 0000.0001) %MON dynstat_uvel_sd              =   5.2396179379391E-02
(PID.TID 0000.0001) %MON dynstat_uvel_del2            =   4.7451053106161E-07
(PID.TID 0000.0001) %MON dynstat_vvel_max             =   2.1788666012208E+00
(PID.TID 0000.0001) %MON dynstat_vvel_min             =  -9.0890698713745E-01
(PID.TID 0000.0001) %MON dynstat_vvel_mean            =  -2.7151529044848E-03
(PID.TID 0000.0001) %MON dynstat_vvel_sd              =   4.8542649727391E-02
(PID.TID 0000.0001) %MON dynstat_vvel_del2            =   4.3380304916246E-07
(PID.TID 0000.0001) %MON dynstat_wvel_max             =   3.6529979594790E-02
(PID.TID 0000.0001) %MON dynstat_wvel_min             =  -3.0055997293511E-02
(PID.TID 0000.0001) %MON dynstat_wvel_mean            =  -9.1596774144784E-06
(PID.TID 0000.0001) %MON dynstat_wvel_sd              =   5.8735037669394E-04
(PID.TID 0000.0001) %MON dynstat_wvel_del2            =   7.6895765539432E-08
(PID.TID 0000.0001) %MON dynstat_theta_max            =   2.6139168710513E+01
(PID.TID 0000.0001) %MON dynstat_theta_min            =   1.4688641784152E+00
(PID.TID 0000.0001) %MON dynstat_theta_mean           =   5.5098464711871E+00
(PID.TID 0000.0001) %MON dynstat_theta_sd             =   4.7733844624531E+00
(PID.TID 0000.0001) %MON dynstat_theta_del2           =   4.0126503272343E-06
(PID.TID 0000.0001) %MON dynstat_salt_max             =   3.9173661704471E+01
(PID.TID 0000.0001) %MON dynstat_salt_min             =   3.3094825596754E+01
(PID.TID 0000.0001) %MON dynstat_salt_mean            =   3.5173367247502E+01
(PID.TID 0000.0001) %MON dynstat_salt_sd              =   3.7891078537846E-01
(PID.TID 0000.0001) %MON dynstat_salt_del2            =   5.0613315645429E-07
(PID.TID 0000.0001) %MON dynstat_sst_max              =   2.6135094621556E+01
(PID.TID 0000.0001) %MON dynstat_sst_min              =   4.0089806731902E+00
(PID.TID 0000.0001) %MON dynstat_sst_mean             =   1.9642215979358E+01
(PID.TID 0000.0001) %MON dynstat_sst_sd               =   3.6385762396195E+00
(PID.TID 0000.0001) %MON dynstat_sst_del2             =   1.9076261538966E-05
(PID.TID 0000.0001) %MON dynstat_sss_max              =   3.7335682782524E+01
(PID.TID 0000.0001) %MON dynstat_sss_min              =   3.3094825596754E+01
(PID.TID 0000.0001) %MON dynstat_sss_mean             =   3.5868195810185E+01
(PID.TID 0000.0001) %MON dynstat_sss_sd               =   4.8720063519184E-01
(PID.TID 0000.0001) %MON dynstat_sss_del2             =   4.9629650220988E-06
(PID.TID 0000.0001) %MON forcing_qnet_max             =   1.1762001899159E+03
(PID.TID 0000.0001) %MON forcing_qnet_min             =  -3.3463721619171E+02
(PID.TID 0000.0001) %MON forcing_qnet_mean            =   2.2237491446235E+02
(PID.TID 0000.0001) %MON forcing_qnet_sd              =   1.5388430737135E+02
(PID.TID 0000.0001) %MON forcing_qnet_del2            =   1.6170314979849E-03
(PID.TID 0000.0001) %MON forcing_qsw_max              =   0.0000000000000E+00
(PID.TID 0000.0001) %MON forcing_qsw_min              =  -2.0273070239159E+01
(PID.TID 0000.0001) %MON forcing_qsw_mean             =  -6.4284641983590E-01
(PID.TID 0000.0001) %MON forcing_qsw_sd               =   2.0827712715130E+00
(PID.TID 0000.0001) %MON forcing_qsw_del2             =   7.1966786243507E-06
(PID.TID 0000.0001) %MON forcing_empmr_max            =   2.4632569484198E-04
(PID.TID 0000.0001) %MON forcing_empmr_min            =  -8.6926215634298E-04
(PID.TID 0000.0001) %MON forcing_empmr_mean           =   1.5399798149639E-05
(PID.TID 0000.0001) %MON forcing_empmr_sd             =   1.1168357065205E-04
(PID.TID 0000.0001) %MON forcing_empmr_del2           =   7.8022751486769E-10
(PID.TID 0000.0001) %MON forcing_fu_max               =   1.1518495055479E+00
(PID.TID 0000.0001) %MON forcing_fu_min               =  -3.5177750535357E-01
(PID.TID 0000.0001) %MON forcing_fu_mean              =   7.1963351582396E-02
(PID.TID 0000.0001) %MON forcing_fu_sd                =   1.6695012467366E-01
(PID.TID 0000.0001) %MON forcing_fu_del2              =   2.4954852092377E-07
(PID.TID 0000.0001) %MON forcing_fv_max               =   4.6640217537084E-01
(PID.TID 0000.0001) %MON forcing_fv_min               =  -4.8140063084187E-01
(PID.TID 0000.0001) %MON forcing_fv_mean              =   2.0506256244609E-02
(PID.TID 0000.0001) %MON forcing_fv_sd                =   1.1478107892510E-01
(PID.TID 0000.0001) %MON forcing_fv_del2              =   1.9514890798414E-07
(PID.TID 0000.0001) %MON trAdv_CFL_u_max              =   7.8908033825184E-02
(PID.TID 0000.0001) %MON trAdv_CFL_v_max              =   1.3766821990164E-01
(PID.TID 0000.0001) %MON trAdv_CFL_w_max              =   4.8486158334315E-01
(PID.TID 0000.0001) %MON advcfl_uvel_max              =   7.8908032750780E-02
(PID.TID 0000.0001) %MON advcfl_vvel_max              =   1.3770827603764E-01
(PID.TID 0000.0001) %MON advcfl_wvel_max              =   4.8110296641801E-01
(PID.TID 0000.0001) %MON advcfl_W_hf_max              =   4.8486158334315E-01
(PID.TID 0000.0001) %MON pe_b_mean                    =  -3.8978514725150E-04
(PID.TID 0000.0001) %MON ke_max                       =   2.1636749198481E+00
(PID.TID 0000.0001) %MON ke_mean                      =   2.5405039436425E-03
(PID.TID 0000.0001) %MON ke_vol                       =   4.5818637279720E+16
(PID.TID 0000.0001) %MON vort_r_min                   =  -5.0682914648062E-04
(PID.TID 0000.0001) %MON vort_r_max                   =   5.4563990207815E-04
(PID.TID 0000.0001) %MON vort_a_mean                  =   8.2147627054294E-05
(PID.TID 0000.0001) %MON vort_a_sd                    =   1.0128204551589E-05
(PID.TID 0000.0001) %MON vort_p_mean                  =   8.4848848493830E-05
(PID.TID 0000.0001) %MON vort_p_sd                    =   3.4971731092734E-05
(PID.TID 0000.0001) %MON surfExpan_theta_mean         =  -1.3752439275584E-04
(PID.TID 0000.0001) %MON surfExpan_salt_mean          =  -6.0040861269716E-04
(PID.TID 0000.0001) // =======================================================
(PID.TID 0000.0001) // End MONITOR dynamic field statistics
(PID.TID 0000.0001) // =======================================================
(PID.TID 0000.0001) // =======================================================
(PID.TID 0000.0001) // Begin OBCS MONITOR field statistics
(PID.TID 0000.0001) // =======================================================
(PID.TID 0000.0001) %MON obc_N_vVel_max               =   6.9533062238007E-01
(PID.TID 0000.0001) %MON obc_N_vVel_min               =  -3.2259805496536E-01
(PID.TID 0000.0001) %MON obc_N_vVel_mean              =   1.3537174950139E-02
(PID.TID 0000.0001) %MON obc_N_vVel_sd                =   6.4669900488856E-02
(PID.TID 0000.0001) %MON obc_N_vVel_Int               =   1.9378580279720E+08
(PID.TID 0000.0001) %MON obc_S_vVel_max               =   2.1788666012208E+00
(PID.TID 0000.0001) %MON obc_S_vVel_min               =  -2.6256909347755E-01
(PID.TID 0000.0001) %MON obc_S_vVel_mean              =  -7.1067361303625E-05
(PID.TID 0000.0001) %MON obc_S_vVel_sd                =   3.5965892379268E-02
(PID.TID 0000.0001) %MON obc_S_vVel_Int               =  -2.1634965501856E+06
(PID.TID 0000.0001) %MON obc_N_theta_max              =   1.6390332432041E+01
(PID.TID 0000.0001) %MON obc_N_theta_min              =   1.8895910213779E+00
(PID.TID 0000.0001) %MON obc_N_theta_mean             =   5.1589361969886E+00
(PID.TID 0000.0001) %MON obc_N_theta_sd               =   3.4826781859977E+00
(PID.TID 0000.0001) %MON obc_S_theta_max              =   2.5544324816130E+01
(PID.TID 0000.0001) %MON obc_S_theta_min              =   1.4632980186102E+00
(PID.TID 0000.0001) %MON obc_S_theta_mean             =   5.4595529500639E+00
(PID.TID 0000.0001) %MON obc_S_theta_sd               =   5.3559138080854E+00
(PID.TID 0000.0001) %MON obc_N_salt_max               =   3.5910865197779E+01
(PID.TID 0000.0001) %MON obc_N_salt_min               =   3.3295047085845E+01
(PID.TID 0000.0001) %MON obc_N_salt_mean              =   3.5114562540430E+01
(PID.TID 0000.0001) %MON obc_N_salt_sd                =   3.0984861318096E-01
(PID.TID 0000.0001) %MON obc_S_salt_max               =   3.7318305324317E+01
(PID.TID 0000.0001) %MON obc_S_salt_min               =   3.4844694627139E+01
(PID.TID 0000.0001) %MON obc_S_salt_mean              =   3.5168372507334E+01
(PID.TID 0000.0001) %MON obc_S_salt_sd                =   4.5716900135870E-01
(PID.TID 0000.0001) // =======================================================
(PID.TID 0000.0001) // End OBCS MONITOR field statistics
(PID.TID 0000.0001) // =======================================================
(PID.TID 0000.0001) // =======================================================
(PID.TID 0000.0001) // Begin MONITOR EXF statistics
(PID.TID 0000.0001) // =======================================================
(PID.TID 0000.0001) %MON exf_tsnumber                 =                     6
(PID.TID 0000.0001) %MON exf_time_sec                 =   1.4400000000000E+03
(PID.TID 0000.0001) %MON exf_ustress_max              =   1.1428564511960E+00
(PID.TID 0000.0001) %MON exf_ustress_min              =  -3.5022743954287E-01
(PID.TID 0000.0001) %MON exf_ustress_mean             =   7.1667650947495E-02
(PID.TID 0000.0001) %MON exf_ustress_sd               =   1.6588330923800E-01
(PID.TID 0000.0001) %MON exf_ustress_del2             =   2.9706103715966E-07
(PID.TID 0000.0001) %MON exf_vstress_max              =   4.5192983763131E-01
(PID.TID 0000.0001) %MON exf_vstress_min              =  -4.7488653305084E-01
(PID.TID 0000.0001) %MON exf_vstress_mean             =   2.0351441849193E-02
(PID.TID 0000.0001) %MON exf_vstress_sd               =   1.1355813424837E-01
(PID.TID 0000.0001) %MON exf_vstress_del2             =   2.1490199039671E-07
(PID.TID 0000.0001) %MON exf_hflux_max                =   1.1570761111421E+03
(PID.TID 0000.0001) %MON exf_hflux_min                =  -3.1584971352351E+02
(PID.TID 0000.0001) %MON exf_hflux_mean               =   2.2054255431361E+02
(PID.TID 0000.0001) %MON exf_hflux_sd                 =   1.4885546482053E+02
(PID.TID 0000.0001) %MON exf_hflux_del2               =   6.0136129803730E-02
(PID.TID 0000.0001) %MON exf_sflux_max                =   2.4623634124765E-07
(PID.TID 0000.0001) %MON exf_sflux_min                =  -8.7520922963382E-07
(PID.TID 0000.0001) %MON exf_sflux_mean               =   1.5356530142068E-08
(PID.TID 0000.0001) %MON exf_sflux_sd                 =   1.1180101378604E-07
(PID.TID 0000.0001) %MON exf_sflux_del2               =   2.5712696350557E-11
(PID.TID 0000.0001) %MON exf_uwind_max                =   2.1773329268169E+01
(PID.TID 0000.0001) %MON exf_uwind_min                =  -1.4142278869170E+01
(PID.TID 0000.0001) %MON exf_uwind_mean               =   2.7103201729321E+00
(PID.TID 0000.0001) %MON exf_uwind_sd                 =   6.6811031097550E+00
(PID.TID 0000.0001) %MON exf_uwind_del2               =   1.6087992807205E-03
(PID.TID 0000.0001) %MON exf_vwind_max                =   1.4532326477483E+01
(PID.TID 0000.0001) %MON exf_vwind_min                =  -1.2716590419653E+01
(PID.TID 0000.0001) %MON exf_vwind_mean               =   1.1061198054656E+00
(PID.TID 0000.0001) %MON exf_vwind_sd                 =   5.5410858682007E+00
(PID.TID 0000.0001) %MON exf_vwind_del2               =   1.2696844510713E-03
(PID.TID 0000.0001) %MON exf_wspeed_max               =   2.2403609947033E+01
(PID.TID 0000.0001) %MON exf_wspeed_min               =   1.4340893152345E-02
(PID.TID 0000.0001) %MON exf_wspeed_mean              =   7.9893288327981E+00
(PID.TID 0000.0001) %MON exf_wspeed_sd                =   4.4811530466184E+00
(PID.TID 0000.0001) %MON exf_wspeed_del2              =   2.0493304769214E-03
(PID.TID 0000.0001) %MON exf_atemp_max                =   2.9781632578310E+02
(PID.TID 0000.0001) %MON exf_atemp_min                =   2.7459396715641E+02
(PID.TID 0000.0001) %MON exf_atemp_mean               =   2.9104853097575E+02
(PID.TID 0000.0001) %MON exf_atemp_sd                 =   3.9468856067273E+00
(PID.TID 0000.0001) %MON exf_atemp_del2               =   3.9559375300283E-03
(PID.TID 0000.0001) %MON exf_aqh_max                  =   1.5801129350737E-02
(PID.TID 0000.0001) %MON exf_aqh_min                  =   2.7223683922973E-03
(PID.TID 0000.0001) %MON exf_aqh_mean                 =   1.0093609518685E-02
(PID.TID 0000.0001) %MON exf_aqh_sd                   =   2.5922259506697E-03
(PID.TID 0000.0001) %MON exf_aqh_del2                 =   2.2604807935089E-06
(PID.TID 0000.0001) %MON exf_lwflux_max               =   1.6285641171062E+02
(PID.TID 0000.0001) %MON exf_lwflux_min               =  -2.7748075982430E+01
(PID.TID 0000.0001) %MON exf_lwflux_mean              =   6.9436885774998E+01
(PID.TID 0000.0001) %MON exf_lwflux_sd                =   2.7305935203183E+01
(PID.TID 0000.0001) %MON exf_lwflux_del2              =   1.6295991685248E-02
(PID.TID 0000.0001) %MON exf_evap_max                 =   2.7042623624856E-07
(PID.TID 0000.0001) %MON exf_evap_min                 =  -8.7915300099205E-08
(PID.TID 0000.0001) %MON exf_evap_mean                =   5.1138539346853E-08
(PID.TID 0000.0001) %MON exf_evap_sd                  =   3.7957659818281E-08
(PID.TID 0000.0001) %MON exf_evap_del2                =   1.4353731124749E-11
(PID.TID 0000.0001) %MON exf_precip_max               =   8.6079420257086E-07
(PID.TID 0000.0001) %MON exf_precip_min               =   0.0000000000000E+00
(PID.TID 0000.0001) %MON exf_precip_mean              =   3.4193529632795E-08
(PID.TID 0000.0001) %MON exf_precip_sd                =   9.8256291598389E-08
(PID.TID 0000.0001) %MON exf_precip_del2              =   2.3891378865405E-11
(PID.TID 0000.0001) %MON exf_swflux_max               =   0.0000000000000E+00
(PID.TID 0000.0001) %MON exf_swflux_min               =  -1.9114609082636E+01
(PID.TID 0000.0001) %MON exf_swflux_mean              =  -6.0611233870242E-01
(PID.TID 0000.0001) %MON exf_swflux_sd                =   1.9637557702837E+00
(PID.TID 0000.0001) %MON exf_swflux_del2              =   3.9497880928626E-04
(PID.TID 0000.0001) %MON exf_swdown_max               =   2.1238454536262E+01
(PID.TID 0000.0001) %MON exf_swdown_min               =   0.0000000000000E+00
(PID.TID 0000.0001) %MON exf_swdown_mean              =   6.7345815411380E-01
(PID.TID 0000.0001) %MON exf_swdown_sd                =   2.1819508558708E+00
(PID.TID 0000.0001) %MON exf_swdown_del2              =   4.3886534365140E-04
(PID.TID 0000.0001) %MON exf_lwdown_max               =   4.0752001351203E+02
(PID.TID 0000.0001) %MON exf_lwdown_min               =   2.2861169221920E+02
(PID.TID 0000.0001) %MON exf_lwdown_mean              =   3.4549772452645E+02
(PID.TID 0000.0001) %MON exf_lwdown_sd                =   3.1561384493593E+01
(PID.TID 0000.0001) %MON exf_lwdown_del2              =   7.5717133625217E-02
(PID.TID 0000.0001) %MON exf_apressure_max            =   1.0276906558421E+05
(PID.TID 0000.0001) %MON exf_apressure_min            =   9.9955972683846E+04
(PID.TID 0000.0001) %MON exf_apressure_mean           =   1.0212979675429E+05
(PID.TID 0000.0001) %MON exf_apressure_sd             =   5.0764004722446E+02
(PID.TID 0000.0001) %MON exf_apressure_del2           =   2.2349054773644E+01
(PID.TID 0000.0001) %MON exf_runoff_max               =   4.4374798712073E-08
(PID.TID 0000.0001) %MON exf_runoff_min               =   0.0000000000000E+00
(PID.TID 0000.0001) %MON exf_runoff_mean              =   1.5884795719908E-09
(PID.TID 0000.0001) %MON exf_runoff_sd                =   5.3901959599983E-09
(PID.TID 0000.0001) %MON exf_runoff_del2              =   1.2741189756369E-12
(PID.TID 0000.0001) // =======================================================
(PID.TID 0000.0001) // End MONITOR EXF statistics
(PID.TID 0000.0001) // =======================================================
 cg2d: Sum(rhs),rhsMax =   6.62121604486754E+02  5.71253757227034E-02
(PID.TID 0000.0001)      cg2d_init_res =   1.47929742400724E+00
(PID.TID 0000.0001)      cg2d_iters(min,last) =      -1     315
(PID.TID 0000.0001)      cg2d_last_res =   6.72196066830411E-12
(PID.TID 0000.0001) // =======================================================
(PID.TID 0000.0001) // Begin MONITOR dynamic field statistics
(PID.TID 0000.0001) // =======================================================
(PID.TID 0000.0001) %MON time_tsnumber                =                     7
(PID.TID 0000.0001) %MON time_secondsf                =   1.6800000000000E+03
(PID.TID 0000.0001) %MON dynstat_eta_max              =   1.0209301179541E+00
(PID.TID 0000.0001) %MON dynstat_eta_min              =  -1.2360371696963E+00
(PID.TID 0000.0001) %MON dynstat_eta_mean             =  -2.2516836340812E-02
(PID.TID 0000.0001) %MON dynstat_eta_sd               =   2.0221957554901E-01
(PID.TID 0000.0001) %MON dynstat_eta_del2             =   2.4147799567447E-06
(PID.TID 0000.0001) %MON dynstat_uvel_max             =   1.3010605010862E+00
(PID.TID 0000.0001) %MON dynstat_uvel_min             =  -7.0936208267245E-01
(PID.TID 0000.0001) %MON dynstat_uvel_mean            =   2.9021590384260E-03
(PID.TID 0000.0001) %MON dynstat_uvel_sd              =   5.2372995573022E-02
(PID.TID 0000.0001) %MON dynstat_uvel_del2            =   4.8239206443059E-07
(PID.TID 0000.0001) %MON dynstat_vvel_max             =   2.2418623661086E+00
(PID.TID 0000.0001) %MON dynstat_vvel_min             =  -9.1180014321271E-01
(PID.TID 0000.0001) %MON dynstat_vvel_mean            =  -3.0376113804624E-03
(PID.TID 0000.0001) %MON dynstat_vvel_sd              =   4.8697879248737E-02
(PID.TID 0000.0001) %MON dynstat_vvel_del2            =   4.4156895688439E-07
(PID.TID 0000.0001) %MON dynstat_wvel_max             =   3.6081548213989E-02
(PID.TID 0000.0001) %MON dynstat_wvel_min             =  -2.9021292957053E-02
(PID.TID 0000.0001) %MON dynstat_wvel_mean            =  -1.0345911775194E-05
(PID.TID 0000.0001) %MON dynstat_wvel_sd              =   5.8952267435055E-04
(PID.TID 0000.0001) %MON dynstat_wvel_del2            =   7.4974665835138E-08
(PID.TID 0000.0001) %MON dynstat_theta_max            =   2.6138673926722E+01
(PID.TID 0000.0001) %MON dynstat_theta_min            =   1.4688643051209E+00
(PID.TID 0000.0001) %MON dynstat_theta_mean           =   5.5098468460664E+00
(PID.TID 0000.0001) %MON dynstat_theta_sd             =   4.7733677766294E+00
(PID.TID 0000.0001) %MON dynstat_theta_del2           =   4.0164496751496E-06
(PID.TID 0000.0001) %MON dynstat_salt_max             =   3.9170621301921E+01
(PID.TID 0000.0001) %MON dynstat_salt_min             =   3.3095966159614E+01
(PID.TID 0000.0001) %MON dynstat_salt_mean            =   3.5173366669633E+01
(PID.TID 0000.0001) %MON dynstat_salt_sd              =   3.7891088092667E-01
(PID.TID 0000.0001) %MON dynstat_salt_del2            =   5.0980489022004E-07
(PID.TID 0000.0001) %MON dynstat_sst_max              =   2.6134295479473E+01
(PID.TID 0000.0001) %MON dynstat_sst_min              =   3.9954396181045E+00
(PID.TID 0000.0001) %MON dynstat_sst_mean             =   1.9641364225745E+01
(PID.TID 0000.0001) %MON dynstat_sst_sd               =   3.6385694870440E+00
(PID.TID 0000.0001) %MON dynstat_sst_del2             =   1.9089604340283E-05
(PID.TID 0000.0001) %MON dynstat_sss_max              =   3.7335758649663E+01
(PID.TID 0000.0001) %MON dynstat_sss_min              =   3.3095966159614E+01
(PID.TID 0000.0001) %MON dynstat_sss_mean             =   3.5868230672557E+01
(PID.TID 0000.0001) %MON dynstat_sss_sd               =   4.8719772925349E-01
(PID.TID 0000.0001) %MON dynstat_sss_del2             =   4.9543650995725E-06
(PID.TID 0000.0001) %MON forcing_qnet_max             =   1.1748403811705E+03
(PID.TID 0000.0001) %MON forcing_qnet_min             =  -3.3373479124514E+02
(PID.TID 0000.0001) %MON forcing_qnet_mean            =   2.2214965566555E+02
(PID.TID 0000.0001) %MON forcing_qnet_sd              =   1.5341581485419E+02
(PID.TID 0000.0001) %MON forcing_qnet_del2            =   1.6137552781602E-03
(PID.TID 0000.0001) %MON forcing_qsw_max              =   0.0000000000000E+00
(PID.TID 0000.0001) %MON forcing_qsw_min              =  -1.9114609082636E+01
(PID.TID 0000.0001) %MON forcing_qsw_mean             =  -6.0611233870242E-01
(PID.TID 0000.0001) %MON forcing_qsw_sd               =   1.9637557702837E+00
(PID.TID 0000.0001) %MON forcing_qsw_del2             =   6.7854398458164E-06
(PID.TID 0000.0001) %MON forcing_empmr_max            =   2.4623634124765E-04
(PID.TID 0000.0001) %MON forcing_empmr_min            =  -8.7520922963382E-04
(PID.TID 0000.0001) %MON forcing_empmr_mean           =   1.5356530142068E-05
(PID.TID 0000.0001) %MON forcing_empmr_sd             =   1.1180101378604E-04
(PID.TID 0000.0001) %MON forcing_empmr_del2           =   7.9108523829994E-10
(PID.TID 0000.0001) %MON forcing_fu_max               =   1.1418165061839E+00
(PID.TID 0000.0001) %MON forcing_fu_min               =  -3.5019325977370E-01
(PID.TID 0000.0001) %MON forcing_fu_mean              =   7.1729359150989E-02
(PID.TID 0000.0001) %MON forcing_fu_sd                =   1.6594874668036E-01
(PID.TID 0000.0001) %MON forcing_fu_del2              =   2.4649642441147E-07
(PID.TID 0000.0001) %MON forcing_fv_max               =   4.5246961200291E-01
(PID.TID 0000.0001) %MON forcing_fv_min               =  -4.7741359365799E-01
(PID.TID 0000.0001) %MON forcing_fv_mean              =   2.0360468281584E-02
(PID.TID 0000.0001) %MON forcing_fv_sd                =   1.1370626027390E-01
(PID.TID 0000.0001) %MON forcing_fv_del2              =   1.9175410951054E-07
(PID.TID 0000.0001) %MON trAdv_CFL_u_max              =   7.8936333170389E-02
(PID.TID 0000.0001) %MON trAdv_CFL_v_max              =   1.4164850708792E-01
(PID.TID 0000.0001) %MON trAdv_CFL_w_max              =   5.2040502361843E-01
(PID.TID 0000.0001) %MON advcfl_uvel_max              =   7.8936332095600E-02
(PID.TID 0000.0001) %MON advcfl_vvel_max              =   1.4168972133379E-01
(PID.TID 0000.0001) %MON advcfl_wvel_max              =   5.1637087614852E-01
(PID.TID 0000.0001) %MON advcfl_W_hf_max              =   5.2040502361843E-01
(PID.TID 0000.0001) %MON pe_b_mean                    =  -4.9473207724916E-04
(PID.TID 0000.0001) %MON ke_max                       =   2.2897524630142E+00
(PID.TID 0000.0001) %MON ke_mean                      =   2.5470727108562E-03
(PID.TID 0000.0001) %MON ke_vol                       =   4.5818637279720E+16
(PID.TID 0000.0001) %MON vort_r_min                   =  -5.1115403470049E-04
(PID.TID 0000.0001) %MON vort_r_max                   =   5.6425949929471E-04
(PID.TID 0000.0001) %MON vort_a_mean                  =   8.2147626272995E-05
(PID.TID 0000.0001) %MON vort_a_sd                    =   1.0131255491429E-05
(PID.TID 0000.0001) %MON vort_p_mean                  =   8.4848847686839E-05
(PID.TID 0000.0001) %MON vort_p_sd                    =   3.4971268447152E-05
(PID.TID 0000.0001) %MON surfExpan_theta_mean         =  -1.8069112880911E-04
(PID.TID 0000.0001) %MON surfExpan_salt_mean          =  -6.7111765840060E-04
(PID.TID 0000.0001) // =======================================================
(PID.TID 0000.0001) // End MONITOR dynamic field statistics
(PID.TID 0000.0001) // =======================================================
(PID.TID 0000.0001) // =======================================================
(PID.TID 0000.0001) // Begin OBCS MONITOR field statistics
(PID.TID 0000.0001) // =======================================================
(PID.TID 0000.0001) %MON obc_N_vVel_max               =   6.9521236116019E-01
(PID.TID 0000.0001) %MON obc_N_vVel_min               =  -3.2280691227700E-01
(PID.TID 0000.0001) %MON obc_N_vVel_mean              =   1.3558519772720E-02
(PID.TID 0000.0001) %MON obc_N_vVel_sd                =   6.4657344949975E-02
(PID.TID 0000.0001) %MON obc_N_vVel_Int               =   1.9409135573529E+08
(PID.TID 0000.0001) %MON obc_S_vVel_max               =   2.2418623661086E+00
(PID.TID 0000.0001) %MON obc_S_vVel_min               =  -2.6267591393568E-01
(PID.TID 0000.0001) %MON obc_S_vVel_mean              =  -7.7413489822454E-04
(PID.TID 0000.0001) %MON obc_S_vVel_sd                =   3.6015630243837E-02
(PID.TID 0000.0001) %MON obc_S_vVel_Int               =  -2.3566911039958E+07
(PID.TID 0000.0001) %MON obc_N_theta_max              =   1.6390244329854E+01
(PID.TID 0000.0001) %MON obc_N_theta_min              =   1.8895910704432E+00
(PID.TID 0000.0001) %MON obc_N_theta_mean             =   5.1589288128385E+00
(PID.TID 0000.0001) %MON obc_N_theta_sd               =   3.4826688944174E+00
(PID.TID 0000.0001) %MON obc_S_theta_max              =   2.5544222067351E+01
(PID.TID 0000.0001) %MON obc_S_theta_min              =   1.4632984148975E+00
(PID.TID 0000.0001) %MON obc_S_theta_mean             =   5.4595521450393E+00
(PID.TID 0000.0001) %MON obc_S_theta_sd               =   5.3559099369382E+00
(PID.TID 0000.0001) %MON obc_N_salt_max               =   3.5910864789416E+01
(PID.TID 0000.0001) %MON obc_N_salt_min               =   3.3295052588478E+01
(PID.TID 0000.0001) %MON obc_N_salt_mean              =   3.5114562244443E+01
(PID.TID 0000.0001) %MON obc_N_salt_sd                =   3.0984849390781E-01
(PID.TID 0000.0001) %MON obc_S_salt_max               =   3.7318298439933E+01
(PID.TID 0000.0001) %MON obc_S_salt_min               =   3.4844694679359E+01
(PID.TID 0000.0001) %MON obc_S_salt_mean              =   3.5168372435418E+01
(PID.TID 0000.0001) %MON obc_S_salt_sd                =   4.5716865028953E-01
(PID.TID 0000.0001) // =======================================================
(PID.TID 0000.0001) // End OBCS MONITOR field statistics
(PID.TID 0000.0001) // =======================================================
(PID.TID 0000.0001) // =======================================================
(PID.TID 0000.0001) // Begin MONITOR EXF statistics
(PID.TID 0000.0001) // =======================================================
(PID.TID 0000.0001) %MON exf_tsnumber                 =                     7
(PID.TID 0000.0001) %MON exf_time_sec                 =   1.6800000000000E+03
(PID.TID 0000.0001) %MON exf_ustress_max              =   1.1320914329876E+00
(PID.TID 0000.0001) %MON exf_ustress_min              =  -3.4876396158946E-01
(PID.TID 0000.0001) %MON exf_ustress_mean             =   7.1451198957931E-02
(PID.TID 0000.0001) %MON exf_ustress_sd               =   1.6494849734789E-01
(PID.TID 0000.0001) %MON exf_ustress_del2             =   2.9423673202267E-07
(PID.TID 0000.0001) %MON exf_vstress_max              =   4.3831098831783E-01
(PID.TID 0000.0001) %MON exf_vstress_min              =  -4.7089465035904E-01
(PID.TID 0000.0001) %MON exf_vstress_mean             =   2.0221826366831E-02
(PID.TID 0000.0001) %MON exf_vstress_sd               =   1.1256559038305E-01
(PID.TID 0000.0001) %MON exf_vstress_del2             =   2.1265241988195E-07
(PID.TID 0000.0001) %MON exf_hflux_max                =   1.1558938473887E+03
(PID.TID 0000.0001) %MON exf_hflux_min                =  -3.1539065579219E+02
(PID.TID 0000.0001) %MON exf_hflux_mean               =   2.2033928225749E+02
(PID.TID 0000.0001) %MON exf_hflux_sd                 =   1.4842976504779E+02
(PID.TID 0000.0001) %MON exf_hflux_del2               =   6.0049122862980E-02
(PID.TID 0000.0001) %MON exf_sflux_max                =   2.4618591950977E-07
(PID.TID 0000.0001) %MON exf_sflux_min                =  -8.8115731488571E-07
(PID.TID 0000.0001) %MON exf_sflux_mean               =   1.5318291998211E-08
(PID.TID 0000.0001) %MON exf_sflux_sd                 =   1.1199255407624E-07
(PID.TID 0000.0001) %MON exf_sflux_del2               =   2.5760577291121E-11
(PID.TID 0000.0001) %MON exf_uwind_max                =   2.1710401889076E+01
(PID.TID 0000.0001) %MON exf_uwind_min                =  -1.4119145445515E+01
(PID.TID 0000.0001) %MON exf_uwind_mean               =   2.7117431628595E+00
(PID.TID 0000.0001) %MON exf_uwind_sd                 =   6.6696927414530E+00
(PID.TID 0000.0001) %MON exf_uwind_del2               =   1.6066819940025E-03
(PID.TID 0000.0001) %MON exf_vwind_max                =   1.4295092021037E+01
(PID.TID 0000.0001) %MON exf_vwind_min                =  -1.2662872260168E+01
(PID.TID 0000.0001) %MON exf_vwind_mean               =   1.1070992920482E+00
(PID.TID 0000.0001) %MON exf_vwind_sd                 =   5.5214198855900E+00
(PID.TID 0000.0001) %MON exf_vwind_del2               =   1.2653358439260E-03
(PID.TID 0000.0001) %MON exf_wspeed_max               =   2.2329276636512E+01
(PID.TID 0000.0001) %MON exf_wspeed_min               =   5.2642609718330E-03
(PID.TID 0000.0001) %MON exf_wspeed_mean              =   7.9725160745984E+00
(PID.TID 0000.0001) %MON exf_wspeed_sd                =   4.4709155754072E+00
(PID.TID 0000.0001) %MON exf_wspeed_del2              =   2.0449796397308E-03
(PID.TID 0000.0001) %MON exf_atemp_max                =   2.9781525477119E+02
(PID.TID 0000.0001) %MON exf_atemp_min                =   2.7456344222260E+02
(PID.TID 0000.0001) %MON exf_atemp_mean               =   2.9104622582588E+02
(PID.TID 0000.0001) %MON exf_atemp_sd                 =   3.9456164533373E+00
(PID.TID 0000.0001) %MON exf_atemp_del2               =   3.9553473251385E-03
(PID.TID 0000.0001) %MON exf_aqh_max                  =   1.5797263984024E-02
(PID.TID 0000.0001) %MON exf_aqh_min                  =   2.7233431848549E-03
(PID.TID 0000.0001) %MON exf_aqh_mean                 =   1.0092158787740E-02
(PID.TID 0000.0001) %MON exf_aqh_sd                   =   2.5907790660427E-03
(PID.TID 0000.0001) %MON exf_aqh_del2                 =   2.2600035972629E-06
(PID.TID 0000.0001) %MON exf_lwflux_max               =   1.6283428694080E+02
(PID.TID 0000.0001) %MON exf_lwflux_min               =  -2.7543918132540E+01
(PID.TID 0000.0001) %MON exf_lwflux_mean              =   6.9430604020301E+01
(PID.TID 0000.0001) %MON exf_lwflux_sd                =   2.7349607396899E+01
(PID.TID 0000.0001) %MON exf_lwflux_del2              =   1.6298416485767E-02
(PID.TID 0000.0001) %MON exf_evap_max                 =   2.7033575153849E-07
(PID.TID 0000.0001) %MON exf_evap_min                 =  -8.7483483857729E-08
(PID.TID 0000.0001) %MON exf_evap_mean                =   5.1058934702673E-08
(PID.TID 0000.0001) %MON exf_evap_sd                  =   3.7814822594949E-08
(PID.TID 0000.0001) %MON exf_evap_del2                =   1.4321809362628E-11
(PID.TID 0000.0001) %MON exf_precip_max               =   8.6669993432163E-07
(PID.TID 0000.0001) %MON exf_precip_min               =   0.0000000000000E+00
(PID.TID 0000.0001) %MON exf_precip_mean              =   3.4152163132472E-08
(PID.TID 0000.0001) %MON exf_precip_sd                =   9.8549057739679E-08
(PID.TID 0000.0001) %MON exf_precip_del2              =   2.3956749474514E-11
(PID.TID 0000.0001) %MON exf_swflux_max               =   0.0000000000000E+00
(PID.TID 0000.0001) %MON exf_swflux_min               =  -1.7956147926112E+01
(PID.TID 0000.0001) %MON exf_swflux_mean              =  -5.6937825756894E-01
(PID.TID 0000.0001) %MON exf_swflux_sd                =   1.8447402690544E+00
(PID.TID 0000.0001) %MON exf_swflux_del2              =   3.7104069963255E-04
(PID.TID 0000.0001) %MON exf_swdown_max               =   1.9951275473458E+01
(PID.TID 0000.0001) %MON exf_swdown_min               =   0.0000000000000E+00
(PID.TID 0000.0001) %MON exf_swdown_mean              =   6.3264250840993E-01
(PID.TID 0000.0001) %MON exf_swdown_sd                =   2.0497114100605E+00
(PID.TID 0000.0001) %MON exf_swdown_del2              =   4.1226744403617E-04
(PID.TID 0000.0001) %MON exf_lwdown_max               =   4.0762177184538E+02
(PID.TID 0000.0001) %MON exf_lwdown_min               =   2.2847165757370E+02
(PID.TID 0000.0001) %MON exf_lwdown_mean              =   3.4549934789971E+02
(PID.TID 0000.0001) %MON exf_lwdown_sd                =   3.1627792584298E+01
(PID.TID 0000.0001) %MON exf_lwdown_del2              =   7.5718090168526E-02
(PID.TID 0000.0001) %MON exf_apressure_max            =   1.0276801720661E+05
(PID.TID 0000.0001) %MON exf_apressure_min            =   9.9961117270425E+04
(PID.TID 0000.0001) %MON exf_apressure_mean           =   1.0212925459850E+05
(PID.TID 0000.0001) %MON exf_apressure_sd             =   5.0679002436743E+02
(PID.TID 0000.0001) %MON exf_apressure_del2           =   2.2348934351129E+01
(PID.TID 0000.0001) %MON exf_runoff_max               =   4.4374798712073E-08
(PID.TID 0000.0001) %MON exf_runoff_min               =   0.0000000000000E+00
(PID.TID 0000.0001) %MON exf_runoff_mean              =   1.5884795719908E-09
(PID.TID 0000.0001) %MON exf_runoff_sd                =   5.3901959599983E-09
(PID.TID 0000.0001) %MON exf_runoff_del2              =   1.2741189756369E-12
(PID.TID 0000.0001) // =======================================================
(PID.TID 0000.0001) // End MONITOR EXF statistics
(PID.TID 0000.0001) // =======================================================
 cg2d: Sum(rhs),rhsMax =   8.11432175923065E+02  6.47108515186367E-02
(PID.TID 0000.0001)      cg2d_init_res =   1.50038733766242E+00
(PID.TID 0000.0001)      cg2d_iters(min,last) =      -1     315
(PID.TID 0000.0001)      cg2d_last_res =   6.51042631994345E-12
(PID.TID 0000.0001) // =======================================================
(PID.TID 0000.0001) // Begin MONITOR dynamic field statistics
(PID.TID 0000.0001) // =======================================================
(PID.TID 0000.0001) %MON time_tsnumber                =                     8
(PID.TID 0000.0001) %MON time_secondsf                =   1.9200000000000E+03
(PID.TID 0000.0001) %MON dynstat_eta_max              =   1.0025312241178E+00
(PID.TID 0000.0001) %MON dynstat_eta_min              =  -1.2664355810581E+00
(PID.TID 0000.0001) %MON dynstat_eta_mean             =  -2.7594456038165E-02
(PID.TID 0000.0001) %MON dynstat_eta_sd               =   2.1563227262724E-01
(PID.TID 0000.0001) %MON dynstat_eta_del2             =   2.4636728193319E-06
(PID.TID 0000.0001) %MON dynstat_uvel_max             =   1.2998531418389E+00
(PID.TID 0000.0001) %MON dynstat_uvel_min             =  -7.0420377321400E-01
(PID.TID 0000.0001) %MON dynstat_uvel_mean            =   2.6735645773424E-03
(PID.TID 0000.0001) %MON dynstat_uvel_sd              =   5.2341999150390E-02
(PID.TID 0000.0001) %MON dynstat_uvel_del2            =   4.9208813337371E-07
(PID.TID 0000.0001) %MON dynstat_vvel_max             =   2.3044155098749E+00
(PID.TID 0000.0001) %MON dynstat_vvel_min             =  -9.1427627998735E-01
(PID.TID 0000.0001) %MON dynstat_vvel_mean            =  -3.3404132238470E-03
(PID.TID 0000.0001) %MON dynstat_vvel_sd              =   4.8854149719854E-02
(PID.TID 0000.0001) %MON dynstat_vvel_del2            =   4.5071261622472E-07
(PID.TID 0000.0001) %MON dynstat_wvel_max             =   3.5640949345677E-02
(PID.TID 0000.0001) %MON dynstat_wvel_min             =  -2.8340163527856E-02
(PID.TID 0000.0001) %MON dynstat_wvel_mean            =  -1.1519436772765E-05
(PID.TID 0000.0001) %MON dynstat_wvel_sd              =   5.9343476528705E-04
(PID.TID 0000.0001) %MON dynstat_wvel_del2            =   7.4964340902984E-08
(PID.TID 0000.0001) %MON dynstat_theta_max            =   2.6137940266314E+01
(PID.TID 0000.0001) %MON dynstat_theta_min            =   1.4688644404541E+00
(PID.TID 0000.0001) %MON dynstat_theta_mean           =   5.5098492205648E+00
(PID.TID 0000.0001) %MON dynstat_theta_sd             =   4.7733540153942E+00
(PID.TID 0000.0001) %MON dynstat_theta_del2           =   4.0197973020101E-06
(PID.TID 0000.0001) %MON dynstat_salt_max             =   3.9167331953671E+01
(PID.TID 0000.0001) %MON dynstat_salt_min             =   3.3097161388108E+01
(PID.TID 0000.0001) %MON dynstat_salt_mean            =   3.5173366271676E+01
(PID.TID 0000.0001) %MON dynstat_salt_sd              =   3.7891121267695E-01
(PID.TID 0000.0001) %MON dynstat_salt_del2            =   5.1344022890814E-07
(PID.TID 0000.0001) %MON dynstat_sst_max              =   2.6133283013896E+01
(PID.TID 0000.0001) %MON dynstat_sst_min              =   3.9818752652587E+00
(PID.TID 0000.0001) %MON dynstat_sst_mean             =   1.9640573922916E+01
(PID.TID 0000.0001) %MON dynstat_sst_sd               =   3.6385652864957E+00
(PID.TID 0000.0001) %MON dynstat_sst_del2             =   1.9105099700774E-05
(PID.TID 0000.0001) %MON dynstat_sss_max              =   3.7335834653040E+01
(PID.TID 0000.0001) %MON dynstat_sss_min              =   3.3097161388108E+01
(PID.TID 0000.0001) %MON dynstat_sss_mean             =   3.5868264378046E+01
(PID.TID 0000.0001) %MON dynstat_sss_sd               =   4.8719420607347E-01
(PID.TID 0000.0001) %MON dynstat_sss_del2             =   4.9465136515655E-06
(PID.TID 0000.0001) %MON forcing_qnet_max             =   1.1736504377132E+03
(PID.TID 0000.0001) %MON forcing_qnet_min             =  -3.3283872639504E+02
(PID.TID 0000.0001) %MON forcing_qnet_mean            =   2.2194200631379E+02
(PID.TID 0000.0001) %MON forcing_qnet_sd              =   1.5298170554104E+02
(PID.TID 0000.0001) %MON forcing_qnet_del2            =   1.6081288905478E-03
(PID.TID 0000.0001) %MON forcing_qsw_max              =   0.0000000000000E+00
(PID.TID 0000.0001) %MON forcing_qsw_min              =  -1.7956147926112E+01
(PID.TID 0000.0001) %MON forcing_qsw_mean             =  -5.6937825756894E-01
(PID.TID 0000.0001) %MON forcing_qsw_sd               =   1.8447402690544E+00
(PID.TID 0000.0001) %MON forcing_qsw_del2             =   6.3742010672820E-06
(PID.TID 0000.0001) %MON forcing_empmr_max            =   2.4618591950977E-04
(PID.TID 0000.0001) %MON forcing_empmr_min            =  -8.8115731488571E-04
(PID.TID 0000.0001) %MON forcing_empmr_mean           =   1.5318291998211E-05
(PID.TID 0000.0001) %MON forcing_empmr_sd             =   1.1199255407624E-04
(PID.TID 0000.0001) %MON forcing_empmr_del2           =   8.0418637945061E-10
(PID.TID 0000.0001) %MON forcing_fu_max               =   1.1318640254037E+00
(PID.TID 0000.0001) %MON forcing_fu_min               =  -3.4875189468347E-01
(PID.TID 0000.0001) %MON forcing_fu_mean              =   7.1512955524017E-02
(PID.TID 0000.0001) %MON forcing_fu_sd                =   1.6501355929864E-01
(PID.TID 0000.0001) %MON forcing_fu_del2              =   2.4397625350273E-07
(PID.TID 0000.0001) %MON forcing_fv_max               =   4.3895908309485E-01
(PID.TID 0000.0001) %MON forcing_fv_min               =  -4.7367233890817E-01
(PID.TID 0000.0001) %MON forcing_fv_mean              =   2.0230603382949E-02
(PID.TID 0000.0001) %MON forcing_fv_sd                =   1.1271236904620E-01
(PID.TID 0000.0001) %MON forcing_fv_del2              =   1.8891779044239E-07
(PID.TID 0000.0001) %MON trAdv_CFL_u_max              =   7.8863081763768E-02
(PID.TID 0000.0001) %MON trAdv_CFL_v_max              =   1.4560082796279E-01
(PID.TID 0000.0001) %MON trAdv_CFL_w_max              =   5.3501520869702E-01
(PID.TID 0000.0001) %MON advcfl_uvel_max              =   7.8863080689976E-02
(PID.TID 0000.0001) %MON advcfl_vvel_max              =   1.4564319218142E-01
(PID.TID 0000.0001) %MON advcfl_wvel_max              =   5.3086780397844E-01
(PID.TID 0000.0001) %MON advcfl_W_hf_max              =   5.3501520869702E-01
(PID.TID 0000.0001) %MON pe_b_mean                    =  -6.1096273846441E-04
(PID.TID 0000.0001) %MON ke_max                       =   2.4085387347409E+00
(PID.TID 0000.0001) %MON ke_mean                      =   2.5533673843414E-03
(PID.TID 0000.0001) %MON ke_vol                       =   4.5818637279720E+16
(PID.TID 0000.0001) %MON vort_r_min                   =  -5.1376661266687E-04
(PID.TID 0000.0001) %MON vort_r_max                   =   5.9987822212034E-04
(PID.TID 0000.0001) %MON vort_a_mean                  =   8.2147625482285E-05
(PID.TID 0000.0001) %MON vort_a_sd                    =   1.0134596904335E-05
(PID.TID 0000.0001) %MON vort_p_mean                  =   8.4848846870129E-05
(PID.TID 0000.0001) %MON vort_p_sd                    =   3.4971637752740E-05
(PID.TID 0000.0001) %MON surfExpan_theta_mean         =  -2.2489398853182E-04
(PID.TID 0000.0001) %MON surfExpan_salt_mean          =  -7.4097347726602E-04
(PID.TID 0000.0001) // =======================================================
(PID.TID 0000.0001) // End MONITOR dynamic field statistics
(PID.TID 0000.0001) // =======================================================
(PID.TID 0000.0001) // =======================================================
(PID.TID 0000.0001) // Begin OBCS MONITOR field statistics
(PID.TID 0000.0001) // =======================================================
(PID.TID 0000.0001) %MON obc_N_vVel_max               =   6.9508252845469E-01
(PID.TID 0000.0001) %MON obc_N_vVel_min               =  -3.2303846185327E-01
(PID.TID 0000.0001) %MON obc_N_vVel_mean              =   1.3565341758323E-02
(PID.TID 0000.0001) %MON obc_N_vVel_sd                =   6.4642702525486E-02
(PID.TID 0000.0001) %MON obc_N_vVel_Int               =   1.9418901303540E+08
(PID.TID 0000.0001) %MON obc_S_vVel_max               =   2.3044155098749E+00
(PID.TID 0000.0001) %MON obc_S_vVel_min               =  -2.6277536312677E-01
(PID.TID 0000.0001) %MON obc_S_vVel_mean              =  -1.4753268654655E-03
(PID.TID 0000.0001) %MON obc_S_vVel_sd                =   3.6069865338561E-02
(PID.TID 0000.0001) %MON obc_S_vVel_Int               =  -4.4913227750133E+07
(PID.TID 0000.0001) %MON obc_N_theta_max              =   1.6390156227667E+01
(PID.TID 0000.0001) %MON obc_N_theta_min              =   1.8895911195086E+00
(PID.TID 0000.0001) %MON obc_N_theta_mean             =   5.1589214286885E+00
(PID.TID 0000.0001) %MON obc_N_theta_sd               =   3.4826596030751E+00
(PID.TID 0000.0001) %MON obc_S_theta_max              =   2.5544119318571E+01
(PID.TID 0000.0001) %MON obc_S_theta_min              =   1.4632988111847E+00
(PID.TID 0000.0001) %MON obc_S_theta_mean             =   5.4595513400147E+00
(PID.TID 0000.0001) %MON obc_S_theta_sd               =   5.3559060658268E+00
(PID.TID 0000.0001) %MON obc_N_salt_max               =   3.5910864381053E+01
(PID.TID 0000.0001) %MON obc_N_salt_min               =   3.3295058091112E+01
(PID.TID 0000.0001) %MON obc_N_salt_mean              =   3.5114561948457E+01
(PID.TID 0000.0001) %MON obc_N_salt_sd                =   3.0984837468061E-01
(PID.TID 0000.0001) %MON obc_S_salt_max               =   3.7318291555549E+01
(PID.TID 0000.0001) %MON obc_S_salt_min               =   3.4844694731580E+01
(PID.TID 0000.0001) %MON obc_S_salt_mean              =   3.5168372363501E+01
(PID.TID 0000.0001) %MON obc_S_salt_sd                =   4.5716829923947E-01
(PID.TID 0000.0001) // =======================================================
(PID.TID 0000.0001) // End OBCS MONITOR field statistics
(PID.TID 0000.0001) // =======================================================
(PID.TID 0000.0001) // =======================================================
(PID.TID 0000.0001) // Begin MONITOR EXF statistics
(PID.TID 0000.0001) // =======================================================
(PID.TID 0000.0001) %MON exf_tsnumber                 =                     8
(PID.TID 0000.0001) %MON exf_time_sec                 =   1.9200000000000E+03
(PID.TID 0000.0001) %MON exf_ustress_max              =   1.1248741621830E+00
(PID.TID 0000.0001) %MON exf_ustress_min              =  -3.4740941879220E-01
(PID.TID 0000.0001) %MON exf_ustress_mean             =   7.1250844093100E-02
(PID.TID 0000.0001) %MON exf_ustress_sd               =   1.6407421468645E-01
(PID.TID 0000.0001) %MON exf_ustress_del2             =   2.9206710297148E-07
(PID.TID 0000.0001) %MON exf_vstress_max              =   4.2516653032316E-01
(PID.TID 0000.0001) %MON exf_vstress_min              =  -4.6731833459382E-01
(PID.TID 0000.0001) %MON exf_vstress_mean             =   2.0107252034325E-02
(PID.TID 0000.0001) %MON exf_vstress_sd               =   1.1164826378897E-01
(PID.TID 0000.0001) %MON exf_vstress_del2             =   2.1080464703301E-07
(PID.TID 0000.0001) %MON exf_hflux_max                =   1.1548491574767E+03
(PID.TID 0000.0001) %MON exf_hflux_min                =  -3.1494242654279E+02
(PID.TID 0000.0001) %MON exf_hflux_mean               =   2.2015110398411E+02
(PID.TID 0000.0001) %MON exf_hflux_sd                 =   1.4803309383121E+02
(PID.TID 0000.0001) %MON exf_hflux_del2               =   5.9968115492156E-02
(PID.TID 0000.0001) %MON exf_sflux_max                =   2.4616730941452E-07
(PID.TID 0000.0001) %MON exf_sflux_min                =  -8.8710616502532E-07
(PID.TID 0000.0001) %MON exf_sflux_mean               =   1.5284643604169E-08
(PID.TID 0000.0001) %MON exf_sflux_sd                 =   1.1225716755048E-07
(PID.TID 0000.0001) %MON exf_sflux_del2               =   2.5824814208941E-11
(PID.TID 0000.0001) %MON exf_uwind_max                =   2.1644244816409E+01
(PID.TID 0000.0001) %MON exf_uwind_min                =  -1.4097523627659E+01
(PID.TID 0000.0001) %MON exf_uwind_mean               =   2.7132281776334E+00
(PID.TID 0000.0001) %MON exf_uwind_sd                 =   6.6588334659603E+00
(PID.TID 0000.0001) %MON exf_uwind_del2               =   1.6046850169413E-03
(PID.TID 0000.0001) %MON exf_vwind_max                =   1.4058260273645E+01
(PID.TID 0000.0001) %MON exf_vwind_min                =  -1.2609389495343E+01
(PID.TID 0000.0001) %MON exf_vwind_mean               =   1.1080867862898E+00
(PID.TID 0000.0001) %MON exf_vwind_sd                 =   5.5027633141348E+00
(PID.TID 0000.0001) %MON exf_vwind_del2               =   1.2612193971186E-03
(PID.TID 0000.0001) %MON exf_wspeed_max               =   2.2258396725349E+01
(PID.TID 0000.0001) %MON exf_wspeed_min               =   6.3164811262708E-03
(PID.TID 0000.0001) %MON exf_wspeed_mean              =   7.9564673505240E+00
(PID.TID 0000.0001) %MON exf_wspeed_sd                =   4.4614524528093E+00
(PID.TID 0000.0001) %MON exf_wspeed_del2              =   2.0408687310977E-03
(PID.TID 0000.0001) %MON exf_atemp_max                =   2.9781418375929E+02
(PID.TID 0000.0001) %MON exf_atemp_min                =   2.7453291728879E+02
(PID.TID 0000.0001) %MON exf_atemp_mean               =   2.9104392067601E+02
(PID.TID 0000.0001) %MON exf_atemp_sd                 =   3.9444345796794E+00
(PID.TID 0000.0001) %MON exf_atemp_del2               =   3.9547614203488E-03
(PID.TID 0000.0001) %MON exf_aqh_max                  =   1.5793398617312E-02
(PID.TID 0000.0001) %MON exf_aqh_min                  =   2.7243179774124E-03
(PID.TID 0000.0001) %MON exf_aqh_mean                 =   1.0090708056796E-02
(PID.TID 0000.0001) %MON exf_aqh_sd                   =   2.5894642348027E-03
(PID.TID 0000.0001) %MON exf_aqh_del2                 =   2.2595344575170E-06
(PID.TID 0000.0001) %MON exf_lwflux_max               =   1.6281249759133E+02
(PID.TID 0000.0001) %MON exf_lwflux_min               =  -2.7340370661822E+01
(PID.TID 0000.0001) %MON exf_lwflux_mean              =   6.9424662330031E+01
(PID.TID 0000.0001) %MON exf_lwflux_sd                =   2.7399323113782E+01
(PID.TID 0000.0001) %MON exf_lwflux_del2              =   1.6301441573003E-02
(PID.TID 0000.0001) %MON exf_evap_max                 =   2.7027707847106E-07
(PID.TID 0000.0001) %MON exf_evap_min                 =  -8.7054760734381E-08
(PID.TID 0000.0001) %MON exf_evap_mean                =   5.0983919808309E-08
(PID.TID 0000.0001) %MON exf_evap_sd                  =   3.7680517225272E-08
(PID.TID 0000.0001) %MON exf_evap_del2                =   1.4291987976553E-11
(PID.TID 0000.0001) %MON exf_precip_max               =   8.7260566607241E-07
(PID.TID 0000.0001) %MON exf_precip_min               =   0.0000000000000E+00
(PID.TID 0000.0001) %MON exf_precip_mean              =   3.4110796632150E-08
(PID.TID 0000.0001) %MON exf_precip_sd                =   9.8910604356481E-08
(PID.TID 0000.0001) %MON exf_precip_del2              =   2.4036656257657E-11
(PID.TID 0000.0001) %MON exf_swflux_max               =   0.0000000000000E+00
(PID.TID 0000.0001) %MON exf_swflux_min               =  -1.6797686769589E+01
(PID.TID 0000.0001) %MON exf_swflux_mean              =  -5.3264417643546E-01
(PID.TID 0000.0001) %MON exf_swflux_sd                =   1.7257247678251E+00
(PID.TID 0000.0001) %MON exf_swflux_del2              =   3.4710258997884E-04
(PID.TID 0000.0001) %MON exf_swdown_max               =   1.8664096410654E+01
(PID.TID 0000.0001) %MON exf_swdown_min               =   0.0000000000000E+00
(PID.TID 0000.0001) %MON exf_swdown_mean              =   5.9182686270606E-01
(PID.TID 0000.0001) %MON exf_swdown_sd                =   1.9174719642501E+00
(PID.TID 0000.0001) %MON exf_swdown_del2              =   3.8566954442093E-04
(PID.TID 0000.0001) %MON exf_lwdown_max               =   4.0772353017872E+02
(PID.TID 0000.0001) %MON exf_lwdown_min               =   2.2833162292819E+02
(PID.TID 0000.0001) %MON exf_lwdown_mean              =   3.4550097127298E+02
(PID.TID 0000.0001) %MON exf_lwdown_sd                =   3.1699557032609E+01
(PID.TID 0000.0001) %MON exf_lwdown_del2              =   7.5719166055684E-02
(PID.TID 0000.0001) %MON exf_apressure_max            =   1.0276697260400E+05
(PID.TID 0000.0001) %MON exf_apressure_min            =   9.9966261857004E+04
(PID.TID 0000.0001) %MON exf_apressure_mean           =   1.0212871244270E+05
(PID.TID 0000.0001) %MON exf_apressure_sd             =   5.0596069480888E+02
(PID.TID 0000.0001) %MON exf_apressure_del2           =   2.2348813953084E+01
(PID.TID 0000.0001) %MON exf_runoff_max               =   4.4374798712073E-08
(PID.TID 0000.0001) %MON exf_runoff_min               =   0.0000000000000E+00
(PID.TID 0000.0001) %MON exf_runoff_mean              =   1.5884795719908E-09
(PID.TID 0000.0001) %MON exf_runoff_sd                =   5.3901959599983E-09
(PID.TID 0000.0001) %MON exf_runoff_del2              =   1.2741189756369E-12
(PID.TID 0000.0001) // =======================================================
(PID.TID 0000.0001) // End MONITOR EXF statistics
(PID.TID 0000.0001) // =======================================================
 cg2d: Sum(rhs),rhsMax =   9.73951970979464E+02  7.06777071493415E-02
(PID.TID 0000.0001)      cg2d_init_res =   1.59818840773476E+00
(PID.TID 0000.0001)      cg2d_iters(min,last) =      -1     314
(PID.TID 0000.0001)      cg2d_last_res =   6.93886777274355E-12
(PID.TID 0000.0001) // =======================================================
(PID.TID 0000.0001) // Begin MONITOR dynamic field statistics
(PID.TID 0000.0001) // =======================================================
(PID.TID 0000.0001) %MON time_tsnumber                =                     9
(PID.TID 0000.0001) %MON time_secondsf                =   2.1600000000000E+03
(PID.TID 0000.0001) %MON dynstat_eta_max              =   9.9615700092823E-01
(PID.TID 0000.0001) %MON dynstat_eta_min              =  -1.3917865200316E+00
(PID.TID 0000.0001) %MON dynstat_eta_mean             =  -3.3121283138549E-02
(PID.TID 0000.0001) %MON dynstat_eta_sd               =   2.2791999585636E-01
(PID.TID 0000.0001) %MON dynstat_eta_del2             =   2.4581691901313E-06
(PID.TID 0000.0001) %MON dynstat_uvel_max             =   1.2970990435668E+00
(PID.TID 0000.0001) %MON dynstat_uvel_min             =  -7.0264049018201E-01
(PID.TID 0000.0001) %MON dynstat_uvel_mean            =   2.4398475169044E-03
(PID.TID 0000.0001) %MON dynstat_uvel_sd              =   5.2312729418870E-02
(PID.TID 0000.0001) %MON dynstat_uvel_del2            =   5.0239141667847E-07
(PID.TID 0000.0001) %MON dynstat_vvel_max             =   2.3665103372262E+00
(PID.TID 0000.0001) %MON dynstat_vvel_min             =  -9.1615658025126E-01
(PID.TID 0000.0001) %MON dynstat_vvel_mean            =  -3.6257803699822E-03
(PID.TID 0000.0001) %MON dynstat_vvel_sd              =   4.8999738897999E-02
(PID.TID 0000.0001) %MON dynstat_vvel_del2            =   4.6004734026768E-07
(PID.TID 0000.0001) %MON dynstat_wvel_max             =   3.5189612371917E-02
(PID.TID 0000.0001) %MON dynstat_wvel_min             =  -2.9014116777984E-02
(PID.TID 0000.0001) %MON dynstat_wvel_mean            =  -1.2678833044955E-05
(PID.TID 0000.0001) %MON dynstat_wvel_sd              =   5.9791263018817E-04
(PID.TID 0000.0001) %MON dynstat_wvel_del2            =   7.5500017638350E-08
(PID.TID 0000.0001) %MON dynstat_theta_max            =   2.6137108995790E+01
(PID.TID 0000.0001) %MON dynstat_theta_min            =   1.4688645848180E+00
(PID.TID 0000.0001) %MON dynstat_theta_mean           =   5.5098536312170E+00
(PID.TID 0000.0001) %MON dynstat_theta_sd             =   4.7733432709562E+00
(PID.TID 0000.0001) %MON dynstat_theta_del2           =   4.0230391436138E-06
(PID.TID 0000.0001) %MON dynstat_salt_max             =   3.9163826814133E+01
(PID.TID 0000.0001) %MON dynstat_salt_min             =   3.3098404383105E+01
(PID.TID 0000.0001) %MON dynstat_salt_mean            =   3.5173366048105E+01
(PID.TID 0000.0001) %MON dynstat_salt_sd              =   3.7891173702796E-01
(PID.TID 0000.0001) %MON dynstat_salt_del2            =   5.1692941435159E-07
(PID.TID 0000.0001) %MON dynstat_sst_max              =   2.6132969651646E+01
(PID.TID 0000.0001) %MON dynstat_sst_min              =   3.9683246168565E+00
(PID.TID 0000.0001) %MON dynstat_sst_mean             =   1.9639834157234E+01
(PID.TID 0000.0001) %MON dynstat_sst_sd               =   3.6385625732997E+00
(PID.TID 0000.0001) %MON dynstat_sst_del2             =   1.9124441772263E-05
(PID.TID 0000.0001) %MON dynstat_sss_max              =   3.7335910400323E+01
(PID.TID 0000.0001) %MON dynstat_sss_min              =   3.3098404383105E+01
(PID.TID 0000.0001) %MON dynstat_sss_mean             =   3.5868296971793E+01
(PID.TID 0000.0001) %MON dynstat_sss_sd               =   4.8719003386998E-01
(PID.TID 0000.0001) %MON dynstat_sss_del2             =   4.9392367979390E-06
(PID.TID 0000.0001) %MON forcing_qnet_max             =   1.1726005897266E+03
(PID.TID 0000.0001) %MON forcing_qnet_min             =  -3.3195470806942E+02
(PID.TID 0000.0001) %MON forcing_qnet_mean            =   2.2174974508138E+02
(PID.TID 0000.0001) %MON forcing_qnet_sd              =   1.5257889317552E+02
(PID.TID 0000.0001) %MON forcing_qnet_del2            =   1.6038177452816E-03
(PID.TID 0000.0001) %MON forcing_qsw_max              =   0.0000000000000E+00
(PID.TID 0000.0001) %MON forcing_qsw_min              =  -1.6797686769589E+01
(PID.TID 0000.0001) %MON forcing_qsw_mean             =  -5.3264417643546E-01
(PID.TID 0000.0001) %MON forcing_qsw_sd               =   1.7257247678251E+00
(PID.TID 0000.0001) %MON forcing_qsw_del2             =   5.9629622887477E-06
(PID.TID 0000.0001) %MON forcing_empmr_max            =   2.4616730941452E-04
(PID.TID 0000.0001) %MON forcing_empmr_min            =  -8.8710616502532E-04
(PID.TID 0000.0001) %MON forcing_empmr_mean           =   1.5284643604169E-05
(PID.TID 0000.0001) %MON forcing_empmr_sd             =   1.1225716755048E-04
(PID.TID 0000.0001) %MON forcing_empmr_del2           =   8.1919140917471E-10
(PID.TID 0000.0001) %MON forcing_fu_max               =   1.1246713430980E+00
(PID.TID 0000.0001) %MON forcing_fu_min               =  -3.4735113115127E-01
(PID.TID 0000.0001) %MON forcing_fu_mean              =   7.1312656108729E-02
(PID.TID 0000.0001) %MON forcing_fu_sd                =   1.6413891912531E-01
(PID.TID 0000.0001) %MON forcing_fu_del2              =   2.4150550984638E-07
(PID.TID 0000.0001) %MON forcing_fv_max               =   4.2549776681821E-01
(PID.TID 0000.0001) %MON forcing_fv_min               =  -4.7028390127517E-01
(PID.TID 0000.0001) %MON forcing_fv_mean              =   2.0115791650251E-02
(PID.TID 0000.0001) %MON forcing_fv_sd                =   1.1179370948288E-01
(PID.TID 0000.0001) %MON forcing_fv_del2              =   1.8671747736237E-07
(PID.TID 0000.0001) %MON trAdv_CFL_u_max              =   7.8695988520521E-02
(PID.TID 0000.0001) %MON trAdv_CFL_v_max              =   1.4952419084409E-01
(PID.TID 0000.0001) %MON trAdv_CFL_w_max              =   5.3022441900816E-01
(PID.TID 0000.0001) %MON advcfl_uvel_max              =   7.8695987449004E-02
(PID.TID 0000.0001) %MON advcfl_vvel_max              =   1.4956769660982E-01
(PID.TID 0000.0001) %MON advcfl_wvel_max              =   5.2611415219414E-01
(PID.TID 0000.0001) %MON advcfl_W_hf_max              =   5.3022441900816E-01
(PID.TID 0000.0001) %MON pe_b_mean                    =  -7.3828171338212E-04
(PID.TID 0000.0001) %MON ke_max                       =   2.5302994697135E+00
(PID.TID 0000.0001) %MON ke_mean                      =   2.5593233166919E-03
(PID.TID 0000.0001) %MON ke_vol                       =   4.5818637279720E+16
(PID.TID 0000.0001) %MON vort_r_min                   =  -5.1532306290696E-04
(PID.TID 0000.0001) %MON vort_r_max                   =   6.4204867170639E-04
(PID.TID 0000.0001) %MON vort_a_mean                  =   8.2147624682866E-05
(PID.TID 0000.0001) %MON vort_a_sd                    =   1.0138093958671E-05
(PID.TID 0000.0001) %MON vort_p_mean                  =   8.4848846044424E-05
(PID.TID 0000.0001) %MON vort_p_sd                    =   3.4972760605659E-05
(PID.TID 0000.0001) %MON surfExpan_theta_mean         =  -2.6956983663946E-04
(PID.TID 0000.0001) %MON surfExpan_salt_mean          =  -8.0982848628243E-04
(PID.TID 0000.0001) // =======================================================
(PID.TID 0000.0001) // End MONITOR dynamic field statistics
(PID.TID 0000.0001) // =======================================================
(PID.TID 0000.0001) // =======================================================
(PID.TID 0000.0001) // Begin OBCS MONITOR field statistics
(PID.TID 0000.0001) // =======================================================
(PID.TID 0000.0001) %MON obc_N_vVel_max               =   6.9494126870028E-01
(PID.TID 0000.0001) %MON obc_N_vVel_min               =  -3.2329244299176E-01
(PID.TID 0000.0001) %MON obc_N_vVel_mean              =   1.3557624938349E-02
(PID.TID 0000.0001) %MON obc_N_vVel_sd                =   6.4626123524563E-02
(PID.TID 0000.0001) %MON obc_N_vVel_Int               =   1.9407854610568E+08
(PID.TID 0000.0001) %MON obc_S_vVel_max               =   2.3665103372262E+00
(PID.TID 0000.0001) %MON obc_S_vVel_min               =  -2.6286729972578E-01
(PID.TID 0000.0001) %MON obc_S_vVel_mean              =  -2.1737948102404E-03
(PID.TID 0000.0001) %MON obc_S_vVel_sd                =   3.6128657339757E-02
(PID.TID 0000.0001) %MON obc_S_vVel_Int               =  -6.6176617317669E+07
(PID.TID 0000.0001) %MON obc_N_theta_max              =   1.6390068125480E+01
(PID.TID 0000.0001) %MON obc_N_theta_min              =   1.8895911685740E+00
(PID.TID 0000.0001) %MON obc_N_theta_mean             =   5.1589140445384E+00
(PID.TID 0000.0001) %MON obc_N_theta_sd               =   3.4826503119708E+00
(PID.TID 0000.0001) %MON obc_S_theta_max              =   2.5544016569792E+01
(PID.TID 0000.0001) %MON obc_S_theta_min              =   1.4632992074720E+00
(PID.TID 0000.0001) %MON obc_S_theta_mean             =   5.4595505349901E+00
(PID.TID 0000.0001) %MON obc_S_theta_sd               =   5.3559021947514E+00
(PID.TID 0000.0001) %MON obc_N_salt_max               =   3.5910863972689E+01
(PID.TID 0000.0001) %MON obc_N_salt_min               =   3.3295063593745E+01
(PID.TID 0000.0001) %MON obc_N_salt_mean              =   3.5114561652470E+01
(PID.TID 0000.0001) %MON obc_N_salt_sd                =   3.0984825548436E-01
(PID.TID 0000.0001) %MON obc_S_salt_max               =   3.7318284671165E+01
(PID.TID 0000.0001) %MON obc_S_salt_min               =   3.4844694783800E+01
(PID.TID 0000.0001) %MON obc_S_salt_mean              =   3.5168372291584E+01
(PID.TID 0000.0001) %MON obc_S_salt_sd                =   4.5716794818441E-01
(PID.TID 0000.0001) // =======================================================
(PID.TID 0000.0001) // End OBCS MONITOR field statistics
(PID.TID 0000.0001) // =======================================================
(PID.TID 0000.0001) // =======================================================
(PID.TID 0000.0001) // Begin MONITOR EXF statistics
(PID.TID 0000.0001) // =======================================================
(PID.TID 0000.0001) %MON exf_tsnumber                 =                     9
(PID.TID 0000.0001) %MON exf_time_sec                 =   2.1600000000000E+03
(PID.TID 0000.0001) %MON exf_ustress_max              =   1.1180966619336E+00
(PID.TID 0000.0001) %MON exf_ustress_min              =  -3.4609083280574E-01
(PID.TID 0000.0001) %MON exf_ustress_mean             =   7.1065450989818E-02
(PID.TID 0000.0001) %MON exf_ustress_sd               =   1.6325583619139E-01
(PID.TID 0000.0001) %MON exf_ustress_del2             =   2.9049725324826E-07
(PID.TID 0000.0001) %MON exf_vstress_max              =   4.2329644175699E-01
(PID.TID 0000.0001) %MON exf_vstress_min              =  -4.6386494019106E-01
(PID.TID 0000.0001) %MON exf_vstress_mean             =   2.0006916657963E-02
(PID.TID 0000.0001) %MON exf_vstress_sd               =   1.1080147833726E-01
(PID.TID 0000.0001) %MON exf_vstress_del2             =   2.0926125427140E-07
(PID.TID 0000.0001) %MON exf_hflux_max                =   1.1539160923497E+03
(PID.TID 0000.0001) %MON exf_hflux_min                =  -3.1450822978253E+02
(PID.TID 0000.0001) %MON exf_hflux_mean               =   2.1997703532512E+02
(PID.TID 0000.0001) %MON exf_hflux_sd                 =   1.4766293197235E+02
(PID.TID 0000.0001) %MON exf_hflux_del2               =   5.9892917101274E-02
(PID.TID 0000.0001) %MON exf_sflux_max                =   2.4617417522955E-07
(PID.TID 0000.0001) %MON exf_sflux_min                =  -8.9443094615174E-07
(PID.TID 0000.0001) %MON exf_sflux_mean               =   1.5255166152144E-08
(PID.TID 0000.0001) %MON exf_sflux_sd                 =   1.1259381043350E-07
(PID.TID 0000.0001) %MON exf_sflux_del2               =   2.5905181501320E-11
(PID.TID 0000.0001) %MON exf_uwind_max                =   2.1580262879147E+01
(PID.TID 0000.0001) %MON exf_uwind_min                =  -1.4076293374285E+01
(PID.TID 0000.0001) %MON exf_uwind_mean               =   2.7147637835249E+00
(PID.TID 0000.0001) %MON exf_uwind_sd                 =   6.6484928300931E+00
(PID.TID 0000.0001) %MON exf_uwind_del2               =   1.6028003908136E-03
(PID.TID 0000.0001) %MON exf_vwind_max                =   1.3821785225715E+01
(PID.TID 0000.0001) %MON exf_vwind_min                =  -1.2556823434549E+01
(PID.TID 0000.0001) %MON exf_vwind_mean               =   1.1090761210531E+00
(PID.TID 0000.0001) %MON exf_vwind_sd                 =   5.4850973967771E+00
(PID.TID 0000.0001) %MON exf_vwind_del2               =   1.2573324107855E-03
(PID.TID 0000.0001) %MON exf_wspeed_max               =   2.2191791716016E+01
(PID.TID 0000.0001) %MON exf_wspeed_min               =   7.3931561431303E-03
(PID.TID 0000.0001) %MON exf_wspeed_mean              =   7.9411537546942E+00
(PID.TID 0000.0001) %MON exf_wspeed_sd                =   4.4527317065892E+00
(PID.TID 0000.0001) %MON exf_wspeed_del2              =   2.0369895643936E-03
(PID.TID 0000.0001) %MON exf_atemp_max                =   2.9781311274738E+02
(PID.TID 0000.0001) %MON exf_atemp_min                =   2.7450239235498E+02
(PID.TID 0000.0001) %MON exf_atemp_mean               =   2.9104161552613E+02
(PID.TID 0000.0001) %MON exf_atemp_sd                 =   3.9433400642304E+00
(PID.TID 0000.0001) %MON exf_atemp_del2               =   3.9541798175706E-03
(PID.TID 0000.0001) %MON exf_aqh_max                  =   1.5789533250599E-02
(PID.TID 0000.0001) %MON exf_aqh_min                  =   2.7252927699699E-03
(PID.TID 0000.0001) %MON exf_aqh_mean                 =   1.0089257325851E-02
(PID.TID 0000.0001) %MON exf_aqh_sd                   =   2.5882816581968E-03
(PID.TID 0000.0001) %MON exf_aqh_del2                 =   2.2590733792904E-06
(PID.TID 0000.0001) %MON exf_lwflux_max               =   1.6279095226154E+02
(PID.TID 0000.0001) %MON exf_lwflux_min               =  -2.7137325676388E+01
(PID.TID 0000.0001) %MON exf_lwflux_mean              =   6.9419000185278E+01
(PID.TID 0000.0001) %MON exf_lwflux_sd                =   2.7455024613493E+01
(PID.TID 0000.0001) %MON exf_lwflux_del2              =   1.6305052342346E-02
(PID.TID 0000.0001) %MON exf_evap_max                 =   2.7024388131390E-07
(PID.TID 0000.0001) %MON exf_evap_min                 =  -8.6630102572114E-08
(PID.TID 0000.0001) %MON exf_evap_mean                =   5.0913075855962E-08
(PID.TID 0000.0001) %MON exf_evap_sd                  =   3.7554100598536E-08
(PID.TID 0000.0001) %MON exf_evap_del2                =   1.4264045009515E-11
(PID.TID 0000.0001) %MON exf_precip_max               =   8.7851139782319E-07
(PID.TID 0000.0001) %MON exf_precip_min               =   0.0000000000000E+00
(PID.TID 0000.0001) %MON exf_precip_mean              =   3.4069430131827E-08
(PID.TID 0000.0001) %MON exf_precip_sd                =   9.9340180476105E-08
(PID.TID 0000.0001) %MON exf_precip_del2              =   2.4130954810839E-11
(PID.TID 0000.0001) %MON exf_swflux_max               =   0.0000000000000E+00
(PID.TID 0000.0001) %MON exf_swflux_min               =  -1.5639225613065E+01
(PID.TID 0000.0001) %MON exf_swflux_mean              =  -4.9591009530198E-01
(PID.TID 0000.0001) %MON exf_swflux_sd                =   1.6067092665958E+00
(PID.TID 0000.0001) %MON exf_swflux_del2              =   3.2316448032512E-04
(PID.TID 0000.0001) %MON exf_swdown_max               =   1.7376917347850E+01
(PID.TID 0000.0001) %MON exf_swdown_min               =   0.0000000000000E+00
(PID.TID 0000.0001) %MON exf_swdown_mean              =   5.5101121700220E-01
(PID.TID 0000.0001) %MON exf_swdown_sd                =   1.7852325184398E+00
(PID.TID 0000.0001) %MON exf_swdown_del2              =   3.5907164480569E-04
(PID.TID 0000.0001) %MON exf_lwdown_max               =   4.0782528851206E+02
(PID.TID 0000.0001) %MON exf_lwdown_min               =   2.2819158828269E+02
(PID.TID 0000.0001) %MON exf_lwdown_mean              =   3.4550259464624E+02
(PID.TID 0000.0001) %MON exf_lwdown_sd                =   3.1776641548112E+01
(PID.TID 0000.0001) %MON exf_lwdown_del2              =   7.5720361281603E-02
(PID.TID 0000.0001) %MON exf_apressure_max            =   1.0276592948233E+05
(PID.TID 0000.0001) %MON exf_apressure_min            =   9.9971406443583E+04
(PID.TID 0000.0001) %MON exf_apressure_mean           =   1.0212817028690E+05
(PID.TID 0000.0001) %MON exf_apressure_sd             =   5.0515216046802E+02
(PID.TID 0000.0001) %MON exf_apressure_del2           =   2.2348693579508E+01
(PID.TID 0000.0001) %MON exf_runoff_max               =   4.4374798712073E-08
(PID.TID 0000.0001) %MON exf_runoff_min               =   0.0000000000000E+00
(PID.TID 0000.0001) %MON exf_runoff_mean              =   1.5884795719908E-09
(PID.TID 0000.0001) %MON exf_runoff_sd                =   5.3901959599983E-09
(PID.TID 0000.0001) %MON exf_runoff_del2              =   1.2741189756369E-12
(PID.TID 0000.0001) // =======================================================
(PID.TID 0000.0001) // End MONITOR EXF statistics
(PID.TID 0000.0001) // =======================================================
 cg2d: Sum(rhs),rhsMax =   1.14948318187700E+03  7.51402631969272E-02
(PID.TID 0000.0001)      cg2d_init_res =   1.65553191614266E+00
(PID.TID 0000.0001)      cg2d_iters(min,last) =      -1     314
(PID.TID 0000.0001)      cg2d_last_res =   6.48498109045475E-12
(PID.TID 0000.0001) // =======================================================
(PID.TID 0000.0001) // Begin MONITOR dynamic field statistics
(PID.TID 0000.0001) // =======================================================
(PID.TID 0000.0001) %MON time_tsnumber                =                    10
(PID.TID 0000.0001) %MON time_secondsf                =   2.4000000000000E+03
(PID.TID 0000.0001) %MON dynstat_eta_max              =   9.9253152483928E-01
(PID.TID 0000.0001) %MON dynstat_eta_min              =  -1.3981479350744E+00
(PID.TID 0000.0001) %MON dynstat_eta_mean             =  -3.9090590772829E-02
(PID.TID 0000.0001) %MON dynstat_eta_sd               =   2.3924784354484E-01
(PID.TID 0000.0001) %MON dynstat_eta_del2             =   2.4099198636830E-06
(PID.TID 0000.0001) %MON dynstat_uvel_max             =   1.2927648235633E+00
(PID.TID 0000.0001) %MON dynstat_uvel_min             =  -7.0100534606583E-01
(PID.TID 0000.0001) %MON dynstat_uvel_mean            =   2.2052226525187E-03
(PID.TID 0000.0001) %MON dynstat_uvel_sd              =   5.2291819644553E-02
(PID.TID 0000.0001) %MON dynstat_uvel_del2            =   5.1224427554837E-07
(PID.TID 0000.0001) %MON dynstat_vvel_max             =   2.4281312600680E+00
(PID.TID 0000.0001) %MON dynstat_vvel_min             =  -9.1729375404494E-01
(PID.TID 0000.0001) %MON dynstat_vvel_mean            =  -3.8942559877731E-03
(PID.TID 0000.0001) %MON dynstat_vvel_sd              =   4.9126932183645E-02
(PID.TID 0000.0001) %MON dynstat_vvel_del2            =   4.6868123117101E-07
(PID.TID 0000.0001) %MON dynstat_wvel_max             =   3.4694227305664E-02
(PID.TID 0000.0001) %MON dynstat_wvel_min             =  -3.0237755485908E-02
(PID.TID 0000.0001) %MON dynstat_wvel_mean            =  -1.3822697757393E-05
(PID.TID 0000.0001) %MON dynstat_wvel_sd              =   6.0185590988273E-04
(PID.TID 0000.0001) %MON dynstat_wvel_del2            =   7.5319353561871E-08
(PID.TID 0000.0001) %MON dynstat_theta_max            =   2.6138491300939E+01
(PID.TID 0000.0001) %MON dynstat_theta_min            =   1.4688647388070E+00
(PID.TID 0000.0001) %MON dynstat_theta_mean           =   5.5098600635630E+00
(PID.TID 0000.0001) %MON dynstat_theta_sd             =   4.7733355402672E+00
(PID.TID 0000.0001) %MON dynstat_theta_del2           =   4.0263077942446E-06
(PID.TID 0000.0001) %MON dynstat_salt_max             =   3.9160130393152E+01
(PID.TID 0000.0001) %MON dynstat_salt_min             =   3.3099689507191E+01
(PID.TID 0000.0001) %MON dynstat_salt_mean            =   3.5173365986843E+01
(PID.TID 0000.0001) %MON dynstat_salt_sd              =   3.7891241602776E-01
(PID.TID 0000.0001) %MON dynstat_salt_del2            =   5.2018044707998E-07
(PID.TID 0000.0001) %MON dynstat_sst_max              =   2.6134144031463E+01
(PID.TID 0000.0001) %MON dynstat_sst_min              =   3.9548289705577E+00
(PID.TID 0000.0001) %MON dynstat_sst_mean             =   1.9639136849962E+01
(PID.TID 0000.0001) %MON dynstat_sst_sd               =   3.6385606156610E+00
(PID.TID 0000.0001) %MON dynstat_sst_del2             =   1.9147867324568E-05
(PID.TID 0000.0001) %MON dynstat_sss_max              =   3.7335985428450E+01
(PID.TID 0000.0001) %MON dynstat_sss_min              =   3.3099689507191E+01
(PID.TID 0000.0001) %MON dynstat_sss_mean             =   3.5868328471831E+01
(PID.TID 0000.0001) %MON dynstat_sss_sd               =   4.8718514722584E-01
(PID.TID 0000.0001) %MON dynstat_sss_del2             =   4.9325185430851E-06
(PID.TID 0000.0001) %MON forcing_qnet_max             =   1.1716643828982E+03
(PID.TID 0000.0001) %MON forcing_qnet_min             =  -3.3108597728775E+02
(PID.TID 0000.0001) %MON forcing_qnet_mean            =   2.2157185422175E+02
(PID.TID 0000.0001) %MON forcing_qnet_sd              =   1.5220479236550E+02
(PID.TID 0000.0001) %MON forcing_qnet_del2            =   1.6041866753811E-03
(PID.TID 0000.0001) %MON forcing_qsw_max              =   0.0000000000000E+00
(PID.TID 0000.0001) %MON forcing_qsw_min              =  -1.5639225613065E+01
(PID.TID 0000.0001) %MON forcing_qsw_mean             =  -4.9591009530198E-01
(PID.TID 0000.0001) %MON forcing_qsw_sd               =   1.6067092665958E+00
(PID.TID 0000.0001) %MON forcing_qsw_del2             =   5.5517235102134E-06
(PID.TID 0000.0001) %MON forcing_empmr_max            =   2.4617417522955E-04
(PID.TID 0000.0001) %MON forcing_empmr_min            =  -8.9443094615174E-04
(PID.TID 0000.0001) %MON forcing_empmr_mean           =   1.5255166152144E-05
(PID.TID 0000.0001) %MON forcing_empmr_sd             =   1.1259381043350E-04
(PID.TID 0000.0001) %MON forcing_empmr_del2           =   8.3618682651349E-10
(PID.TID 0000.0001) %MON forcing_fu_max               =   1.1179109598236E+00
(PID.TID 0000.0001) %MON forcing_fu_min               =  -3.4606084121730E-01
(PID.TID 0000.0001) %MON forcing_fu_mean              =   7.1127332730864E-02
(PID.TID 0000.0001) %MON forcing_fu_sd                =   1.6332019995445E-01
(PID.TID 0000.0001) %MON forcing_fu_del2              =   2.3944941660639E-07
(PID.TID 0000.0001) %MON forcing_fv_max               =   4.2321606948123E-01
(PID.TID 0000.0001) %MON forcing_fv_min               =  -4.6693505810722E-01
(PID.TID 0000.0001) %MON forcing_fv_mean              =   2.0015233457933E-02
(PID.TID 0000.0001) %MON forcing_fv_sd                =   1.1094561518192E-01
(PID.TID 0000.0001) %MON forcing_fv_del2              =   1.8501399450583E-07
(PID.TID 0000.0001) %MON trAdv_CFL_u_max              =   7.8433028086361E-02
(PID.TID 0000.0001) %MON trAdv_CFL_v_max              =   1.5341761082289E-01
(PID.TID 0000.0001) %MON trAdv_CFL_w_max              =   5.1016512975513E-01
(PID.TID 0000.0001) %MON advcfl_uvel_max              =   7.8433027018425E-02
(PID.TID 0000.0001) %MON advcfl_vvel_max              =   1.5346224942349E-01
(PID.TID 0000.0001) %MON advcfl_wvel_max              =   5.0621036130742E-01
(PID.TID 0000.0001) %MON advcfl_W_hf_max              =   5.1016512975513E-01
(PID.TID 0000.0001) %MON pe_b_mean                    =  -8.7651622198953E-04
(PID.TID 0000.0001) %MON ke_max                       =   2.6605539489020E+00
(PID.TID 0000.0001) %MON ke_mean                      =   2.5649030117815E-03
(PID.TID 0000.0001) %MON ke_vol                       =   4.5818637279720E+16
(PID.TID 0000.0001) %MON vort_r_min                   =  -5.1664744480276E-04
(PID.TID 0000.0001) %MON vort_r_max                   =   6.8210267525836E-04
(PID.TID 0000.0001) %MON vort_a_mean                  =   8.2147623875457E-05
(PID.TID 0000.0001) %MON vort_a_sd                    =   1.0141635309832E-05
(PID.TID 0000.0001) %MON vort_p_mean                  =   8.4848845210464E-05
(PID.TID 0000.0001) %MON vort_p_sd                    =   3.4974528934247E-05
(PID.TID 0000.0001) %MON surfExpan_theta_mean         =  -3.1384397770855E-04
(PID.TID 0000.0001) %MON surfExpan_salt_mean          =  -8.7749188636948E-04
(PID.TID 0000.0001) // =======================================================
(PID.TID 0000.0001) // End MONITOR dynamic field statistics
(PID.TID 0000.0001) // =======================================================
(PID.TID 0000.0001) // =======================================================
(PID.TID 0000.0001) // Begin OBCS MONITOR field statistics
(PID.TID 0000.0001) // =======================================================
(PID.TID 0000.0001) %MON obc_N_vVel_max               =   6.9478873976617E-01
(PID.TID 0000.0001) %MON obc_N_vVel_min               =  -3.2356856874258E-01
(PID.TID 0000.0001) %MON obc_N_vVel_mean              =   1.3535370834126E-02
(PID.TID 0000.0001) %MON obc_N_vVel_sd                =   6.4607763335849E-02
(PID.TID 0000.0001) %MON obc_N_vVel_Int               =   1.9375997672409E+08
(PID.TID 0000.0001) %MON obc_S_vVel_max               =   2.4281312600680E+00
(PID.TID 0000.0001) %MON obc_S_vVel_min               =  -2.6295159281772E-01
(PID.TID 0000.0001) %MON obc_S_vVel_mean              =  -2.8686933837102E-03
(PID.TID 0000.0001) %MON obc_S_vVel_sd                =   3.6192046919410E-02
(PID.TID 0000.0001) %MON obc_S_vVel_Int               =  -8.7331344872667E+07
(PID.TID 0000.0001) %MON obc_N_theta_max              =   1.6389980023293E+01
(PID.TID 0000.0001) %MON obc_N_theta_min              =   1.8895912176394E+00
(PID.TID 0000.0001) %MON obc_N_theta_mean             =   5.1589066603884E+00
(PID.TID 0000.0001) %MON obc_N_theta_sd               =   3.4826410211044E+00
(PID.TID 0000.0001) %MON obc_S_theta_max              =   2.5543913821012E+01
(PID.TID 0000.0001) %MON obc_S_theta_min              =   1.4632996037592E+00
(PID.TID 0000.0001) %MON obc_S_theta_mean             =   5.4595497299655E+00
(PID.TID 0000.0001) %MON obc_S_theta_sd               =   5.3558983237118E+00
(PID.TID 0000.0001) %MON obc_N_salt_max               =   3.5910863564326E+01
(PID.TID 0000.0001) %MON obc_N_salt_min               =   3.3295069096378E+01
(PID.TID 0000.0001) %MON obc_N_salt_mean              =   3.5114561356483E+01
(PID.TID 0000.0001) %MON obc_N_salt_sd                =   3.0984813633341E-01
(PID.TID 0000.0001) %MON obc_S_salt_max               =   3.7318277786781E+01
(PID.TID 0000.0001) %MON obc_S_salt_min               =   3.4844694836021E+01
(PID.TID 0000.0001) %MON obc_S_salt_mean              =   3.5168372219668E+01
(PID.TID 0000.0001) %MON obc_S_salt_sd                =   4.5716759715695E-01
(PID.TID 0000.0001) // =======================================================
(PID.TID 0000.0001) // End OBCS MONITOR field statistics
(PID.TID 0000.0001) // =======================================================
(PID.TID 0000.0001) // =======================================================
(PID.TID 0000.0001) // Begin MONITOR EXF statistics
(PID.TID 0000.0001) // =======================================================
(PID.TID 0000.0001) %MON exf_tsnumber                 =                    10
(PID.TID 0000.0001) %MON exf_time_sec                 =   2.4000000000000E+03
(PID.TID 0000.0001) %MON exf_ustress_max              =   1.1116947931269E+00
(PID.TID 0000.0001) %MON exf_ustress_min              =  -3.4483544443476E-01
(PID.TID 0000.0001) %MON exf_ustress_mean             =   7.0894366885046E-02
(PID.TID 0000.0001) %MON exf_ustress_sd               =   1.6249004623812E-01
(PID.TID 0000.0001) %MON exf_ustress_del2             =   2.8933915150913E-07
(PID.TID 0000.0001) %MON exf_vstress_max              =   4.2367268391171E-01
(PID.TID 0000.0001) %MON exf_vstress_min              =  -4.6046232995865E-01
(PID.TID 0000.0001) %MON exf_vstress_mean             =   1.9920214391490E-02
(PID.TID 0000.0001) %MON exf_vstress_sd               =   1.1002129203299E-01
(PID.TID 0000.0001) %MON exf_vstress_del2             =   2.0812315425063E-07
(PID.TID 0000.0001) %MON exf_hflux_max                =   1.1530750911789E+03
(PID.TID 0000.0001) %MON exf_hflux_min                =  -3.1408912226236E+02
(PID.TID 0000.0001) %MON exf_hflux_mean               =   2.1981578673448E+02
(PID.TID 0000.0001) %MON exf_hflux_sd                 =   1.4731752041396E+02
(PID.TID 0000.0001) %MON exf_hflux_del2               =   5.9824117175423E-02
(PID.TID 0000.0001) %MON exf_sflux_max                =   2.4620174161521E-07
(PID.TID 0000.0001) %MON exf_sflux_min                =  -9.0377118521257E-07
(PID.TID 0000.0001) %MON exf_sflux_mean               =   1.5229625712601E-08
(PID.TID 0000.0001) %MON exf_sflux_sd                 =   1.1300141656719E-07
(PID.TID 0000.0001) %MON exf_sflux_del2               =   2.6001464730403E-11
(PID.TID 0000.0001) %MON exf_uwind_max                =   2.1521881762760E+01
(PID.TID 0000.0001) %MON exf_uwind_min                =  -1.4056156993591E+01
(PID.TID 0000.0001) %MON exf_uwind_mean               =   2.7163413334832E+00
(PID.TID 0000.0001) %MON exf_uwind_sd                 =   6.6386481622823E+00
(PID.TID 0000.0001) %MON exf_uwind_del2               =   1.6010205448245E-03
(PID.TID 0000.0001) %MON exf_vwind_max                =   1.3585618381214E+01
(PID.TID 0000.0001) %MON exf_vwind_min                =  -1.2505562934127E+01
(PID.TID 0000.0001) %MON exf_vwind_mean               =   1.1100618820478E+00
(PID.TID 0000.0001) %MON exf_vwind_sd                 =   5.4684075073076E+00
(PID.TID 0000.0001) %MON exf_vwind_del2               =   1.2536723039544E-03
(PID.TID 0000.0001) %MON exf_wspeed_max               =   2.2129445322346E+01
(PID.TID 0000.0001) %MON exf_wspeed_min               =   3.4454563515210E-03
(PID.TID 0000.0001) %MON exf_wspeed_mean              =   7.9265539241535E+00
(PID.TID 0000.0001) %MON exf_wspeed_sd                =   4.4447295303544E+00
(PID.TID 0000.0001) %MON exf_wspeed_del2              =   2.0333342924181E-03
(PID.TID 0000.0001) %MON exf_atemp_max                =   2.9781204173547E+02
(PID.TID 0000.0001) %MON exf_atemp_min                =   2.7447186742118E+02
(PID.TID 0000.0001) %MON exf_atemp_mean               =   2.9103931037626E+02
(PID.TID 0000.0001) %MON exf_atemp_sd                 =   3.9423329797505E+00
(PID.TID 0000.0001) %MON exf_atemp_del2               =   3.9536025187024E-03
(PID.TID 0000.0001) %MON exf_aqh_max                  =   1.5785667883887E-02
(PID.TID 0000.0001) %MON exf_aqh_min                  =   2.7262675625275E-03
(PID.TID 0000.0001) %MON exf_aqh_mean                 =   1.0087806594907E-02
(PID.TID 0000.0001) %MON exf_aqh_sd                   =   2.5872315175784E-03
(PID.TID 0000.0001) %MON exf_aqh_del2                 =   2.2586203675203E-06
(PID.TID 0000.0001) %MON exf_lwflux_max               =   1.6276960207084E+02
(PID.TID 0000.0001) %MON exf_lwflux_min               =  -2.6934727078284E+01
(PID.TID 0000.0001) %MON exf_lwflux_mean              =   6.9413572798963E+01
(PID.TID 0000.0001) %MON exf_lwflux_sd                =   2.7516656918403E+01
(PID.TID 0000.0001) %MON exf_lwflux_del2              =   1.6309237824874E-02
(PID.TID 0000.0001) %MON exf_evap_max                 =   2.7023138472738E-07
(PID.TID 0000.0001) %MON exf_evap_min                 =  -8.6209830903788E-08
(PID.TID 0000.0001) %MON exf_evap_mean                =   5.0846168916096E-08
(PID.TID 0000.0001) %MON exf_evap_sd                  =   3.7435029198323E-08
(PID.TID 0000.0001) %MON exf_evap_del2                =   1.4237933435533E-11
(PID.TID 0000.0001) %MON exf_precip_max               =   8.8452132326331E-07
(PID.TID 0000.0001) %MON exf_precip_min               =   0.0000000000000E+00
(PID.TID 0000.0001) %MON exf_precip_mean              =   3.4028063631504E-08
(PID.TID 0000.0001) %MON exf_precip_sd                =   9.9836907954729E-08
(PID.TID 0000.0001) %MON exf_precip_del2              =   2.4239477170239E-11
(PID.TID 0000.0001) %MON exf_swflux_max               =   0.0000000000000E+00
(PID.TID 0000.0001) %MON exf_swflux_min               =  -1.4480764456542E+01
(PID.TID 0000.0001) %MON exf_swflux_mean              =  -4.5917601416850E-01
(PID.TID 0000.0001) %MON exf_swflux_sd                =   1.4876937653665E+00
(PID.TID 0000.0001) %MON exf_swflux_del2              =   2.9922637067141E-04
(PID.TID 0000.0001) %MON exf_swdown_max               =   1.6089738285047E+01
(PID.TID 0000.0001) %MON exf_swdown_min               =   0.0000000000000E+00
(PID.TID 0000.0001) %MON exf_swdown_mean              =   5.1019557129833E-01
(PID.TID 0000.0001) %MON exf_swdown_sd                =   1.6529930726294E+00
(PID.TID 0000.0001) %MON exf_swdown_del2              =   3.3247374519046E-04
(PID.TID 0000.0001) %MON exf_lwdown_max               =   4.0792704684541E+02
(PID.TID 0000.0001) %MON exf_lwdown_min               =   2.2805155363719E+02
(PID.TID 0000.0001) %MON exf_lwdown_mean              =   3.4550421801951E+02
(PID.TID 0000.0001) %MON exf_lwdown_sd                =   3.1859007514297E+01
(PID.TID 0000.0001) %MON exf_lwdown_del2              =   7.5721675840632E-02
(PID.TID 0000.0001) %MON exf_apressure_max            =   1.0276488636066E+05
(PID.TID 0000.0001) %MON exf_apressure_min            =   9.9976551030162E+04
(PID.TID 0000.0001) %MON exf_apressure_mean           =   1.0212762813110E+05
(PID.TID 0000.0001) %MON exf_apressure_sd             =   5.0436452135376E+02
(PID.TID 0000.0001) %MON exf_apressure_del2           =   2.2348573230403E+01
(PID.TID 0000.0001) %MON exf_runoff_max               =   4.4374798712073E-08
(PID.TID 0000.0001) %MON exf_runoff_min               =   0.0000000000000E+00
(PID.TID 0000.0001) %MON exf_runoff_mean              =   1.5884795719908E-09
(PID.TID 0000.0001) %MON exf_runoff_sd                =   5.3901959599983E-09
(PID.TID 0000.0001) %MON exf_runoff_del2              =   1.2741189756369E-12
(PID.TID 0000.0001) // =======================================================
(PID.TID 0000.0001) // End MONITOR EXF statistics
(PID.TID 0000.0001) // =======================================================
 cg2d: Sum(rhs),rhsMax =   1.33781218030143E+03  7.82262154813240E-02
(PID.TID 0000.0001)      cg2d_init_res =   1.62219611700081E+00
(PID.TID 0000.0001)      cg2d_iters(min,last) =      -1     313
(PID.TID 0000.0001)      cg2d_last_res =   6.53914122017880E-12
(PID.TID 0000.0001) // =======================================================
(PID.TID 0000.0001) // Begin MONITOR dynamic field statistics
(PID.TID 0000.0001) // =======================================================
(PID.TID 0000.0001) %MON time_tsnumber                =                    11
(PID.TID 0000.0001) %MON time_secondsf                =   2.6400000000000E+03
(PID.TID 0000.0001) %MON dynstat_eta_max              =   9.4936249606862E-01
(PID.TID 0000.0001) %MON dynstat_eta_min              =  -1.2798245742920E+00
(PID.TID 0000.0001) %MON dynstat_eta_mean             =  -4.5495114061326E-02
(PID.TID 0000.0001) %MON dynstat_eta_sd               =   2.4970968762101E-01
(PID.TID 0000.0001) %MON dynstat_eta_del2             =   2.3580533335831E-06
(PID.TID 0000.0001) %MON dynstat_uvel_max             =   1.2872427312677E+00
(PID.TID 0000.0001) %MON dynstat_uvel_min             =  -7.0071294778311E-01
(PID.TID 0000.0001) %MON dynstat_uvel_mean            =   1.9726852703246E-03
(PID.TID 0000.0001) %MON dynstat_uvel_sd              =   5.2282130761384E-02
(PID.TID 0000.0001) %MON dynstat_uvel_del2            =   5.2125540549953E-07
(PID.TID 0000.0001) %MON dynstat_vvel_max             =   2.4892628007229E+00
(PID.TID 0000.0001) %MON dynstat_vvel_min             =  -9.1766501880054E-01
(PID.TID 0000.0001) %MON dynstat_vvel_mean            =  -4.1446670379118E-03
(PID.TID 0000.0001) %MON dynstat_vvel_sd              =   4.9232931831013E-02
(PID.TID 0000.0001) %MON dynstat_vvel_del2            =   4.7646408154298E-07
(PID.TID 0000.0001) %MON dynstat_wvel_max             =   3.4214208366207E-02
(PID.TID 0000.0001) %MON dynstat_wvel_min             =  -3.1212149969378E-02
(PID.TID 0000.0001) %MON dynstat_wvel_mean            =  -1.4949646400671E-05
(PID.TID 0000.0001) %MON dynstat_wvel_sd              =   6.0479455346710E-04
(PID.TID 0000.0001) %MON dynstat_wvel_del2            =   7.4117687259616E-08
(PID.TID 0000.0001) %MON dynstat_theta_max            =   2.6139942304130E+01
(PID.TID 0000.0001) %MON dynstat_theta_min            =   1.4688649031511E+00
(PID.TID 0000.0001) %MON dynstat_theta_mean           =   5.5098684574399E+00
(PID.TID 0000.0001) %MON dynstat_theta_sd             =   4.7733307277557E+00
(PID.TID 0000.0001) %MON dynstat_theta_del2           =   4.0293708329251E-06
(PID.TID 0000.0001) %MON dynstat_salt_max             =   3.9156256668553E+01
(PID.TID 0000.0001) %MON dynstat_salt_min             =   3.3101010852024E+01
(PID.TID 0000.0001) %MON dynstat_salt_mean            =   3.5173366070315E+01
(PID.TID 0000.0001) %MON dynstat_salt_sd              =   3.7891321492741E-01
(PID.TID 0000.0001) %MON dynstat_salt_del2            =   5.2310990521156E-07
(PID.TID 0000.0001) %MON dynstat_sst_max              =   2.6135377516608E+01
(PID.TID 0000.0001) %MON dynstat_sst_min              =   3.9414201879748E+00
(PID.TID 0000.0001) %MON dynstat_sst_mean             =   1.9638475765566E+01
(PID.TID 0000.0001) %MON dynstat_sst_sd               =   3.6385590916985E+00
(PID.TID 0000.0001) %MON dynstat_sst_del2             =   1.9177194891062E-05
(PID.TID 0000.0001) %MON dynstat_sss_max              =   3.7336059266310E+01
(PID.TID 0000.0001) %MON dynstat_sss_min              =   3.3101010852024E+01
(PID.TID 0000.0001) %MON dynstat_sss_mean             =   3.5868358867243E+01
(PID.TID 0000.0001) %MON dynstat_sss_sd               =   4.8717950376725E-01
(PID.TID 0000.0001) %MON dynstat_sss_del2             =   4.9261939437487E-06
(PID.TID 0000.0001) %MON forcing_qnet_max             =   1.1708218718644E+03
(PID.TID 0000.0001) %MON forcing_qnet_min             =  -3.3023360374154E+02
(PID.TID 0000.0001) %MON forcing_qnet_mean            =   2.2140702468307E+02
(PID.TID 0000.0001) %MON forcing_qnet_sd              =   1.5185758063606E+02
(PID.TID 0000.0001) %MON forcing_qnet_del2            =   1.6005120810620E-03
(PID.TID 0000.0001) %MON forcing_qsw_max              =   0.0000000000000E+00
(PID.TID 0000.0001) %MON forcing_qsw_min              =  -1.4480764456542E+01
(PID.TID 0000.0001) %MON forcing_qsw_mean             =  -4.5917601416850E-01
(PID.TID 0000.0001) %MON forcing_qsw_sd               =   1.4876937653665E+00
(PID.TID 0000.0001) %MON forcing_qsw_del2             =   5.1404847316791E-06
(PID.TID 0000.0001) %MON forcing_empmr_max            =   2.4620174161521E-04
(PID.TID 0000.0001) %MON forcing_empmr_min            =  -9.0377118521257E-04
(PID.TID 0000.0001) %MON forcing_empmr_mean           =   1.5229625712601E-05
(PID.TID 0000.0001) %MON forcing_empmr_sd             =   1.1300141656719E-04
(PID.TID 0000.0001) %MON forcing_empmr_del2           =   8.5477041011397E-10
(PID.TID 0000.0001) %MON forcing_fu_max               =   1.1115212935046E+00
(PID.TID 0000.0001) %MON forcing_fu_min               =  -3.4482023424711E-01
(PID.TID 0000.0001) %MON forcing_fu_mean              =   7.0956322201992E-02
(PID.TID 0000.0001) %MON forcing_fu_sd                =   1.6255409287570E-01
(PID.TID 0000.0001) %MON forcing_fu_del2              =   2.3803665539230E-07
(PID.TID 0000.0001) %MON forcing_fv_max               =   4.2356204046182E-01
(PID.TID 0000.0001) %MON forcing_fv_min               =  -4.6362235495621E-01
(PID.TID 0000.0001) %MON forcing_fv_mean              =   1.9928321764588E-02
(PID.TID 0000.0001) %MON forcing_fv_sd                =   1.1016414542937E-01
(PID.TID 0000.0001) %MON forcing_fv_del2              =   1.8371837011557E-07
(PID.TID 0000.0001) %MON trAdv_CFL_u_max              =   7.8097998534027E-02
(PID.TID 0000.0001) %MON trAdv_CFL_v_max              =   1.5728010996675E-01
(PID.TID 0000.0001) %MON trAdv_CFL_w_max              =   5.1084993222551E-01
(PID.TID 0000.0001) %MON advcfl_uvel_max              =   7.8097997470652E-02
(PID.TID 0000.0001) %MON advcfl_vvel_max              =   1.5732587240546E-01
(PID.TID 0000.0001) %MON advcfl_wvel_max              =   5.0233576668842E-01
(PID.TID 0000.0001) %MON advcfl_W_hf_max              =   5.1084993222551E-01
(PID.TID 0000.0001) %MON pe_b_mean                    =  -1.0254965749953E-03
(PID.TID 0000.0001) %MON ke_max                       =   2.7985066758444E+00
(PID.TID 0000.0001) %MON ke_mean                      =   2.5700985420019E-03
(PID.TID 0000.0001) %MON ke_vol                       =   4.5818637279720E+16
(PID.TID 0000.0001) %MON vort_r_min                   =  -5.1725767276392E-04
(PID.TID 0000.0001) %MON vort_r_max                   =   7.1547077821493E-04
(PID.TID 0000.0001) %MON vort_a_mean                  =   8.2147623060782E-05
(PID.TID 0000.0001) %MON vort_a_sd                    =   1.0145145702935E-05
(PID.TID 0000.0001) %MON vort_p_mean                  =   8.4848844369001E-05
(PID.TID 0000.0001) %MON vort_p_sd                    =   3.4976832519068E-05
(PID.TID 0000.0001) %MON surfExpan_theta_mean         =  -3.5693043419692E-04
(PID.TID 0000.0001) %MON surfExpan_salt_mean          =  -9.4379184645930E-04
(PID.TID 0000.0001) // =======================================================
(PID.TID 0000.0001) // End MONITOR dynamic field statistics
(PID.TID 0000.0001) // =======================================================
(PID.TID 0000.0001) // =======================================================
(PID.TID 0000.0001) // Begin OBCS MONITOR field statistics
(PID.TID 0000.0001) // =======================================================
(PID.TID 0000.0001) %MON obc_N_vVel_max               =   6.9462511267569E-01
(PID.TID 0000.0001) %MON obc_N_vVel_min               =  -3.2386652640102E-01
(PID.TID 0000.0001) %MON obc_N_vVel_mean              =   1.3498598564145E-02
(PID.TID 0000.0001) %MON obc_N_vVel_sd                =   6.4587781615047E-02
(PID.TID 0000.0001) %MON obc_N_vVel_Int               =   1.9323357857342E+08
(PID.TID 0000.0001) %MON obc_S_vVel_max               =   2.4892628007229E+00
(PID.TID 0000.0001) %MON obc_S_vVel_min               =  -2.6302812209586E-01
(PID.TID 0000.0001) %MON obc_S_vVel_mean              =  -3.5591813948131E-03
(PID.TID 0000.0001) %MON obc_S_vVel_sd                =   3.6260055291612E-02
(PID.TID 0000.0001) %MON obc_S_vVel_Int               =  -1.0835180212003E+08
(PID.TID 0000.0001) %MON obc_N_theta_max              =   1.6389891921106E+01
(PID.TID 0000.0001) %MON obc_N_theta_min              =   1.8895912667048E+00
(PID.TID 0000.0001) %MON obc_N_theta_mean             =   5.1588992762384E+00
(PID.TID 0000.0001) %MON obc_N_theta_sd               =   3.4826317304761E+00
(PID.TID 0000.0001) %MON obc_S_theta_max              =   2.5543811072233E+01
(PID.TID 0000.0001) %MON obc_S_theta_min              =   1.4633000000465E+00
(PID.TID 0000.0001) %MON obc_S_theta_mean             =   5.4595489249409E+00
(PID.TID 0000.0001) %MON obc_S_theta_sd               =   5.3558944527081E+00
(PID.TID 0000.0001) %MON obc_N_salt_max               =   3.5910863155963E+01
(PID.TID 0000.0001) %MON obc_N_salt_min               =   3.3295074599012E+01
(PID.TID 0000.0001) %MON obc_N_salt_mean              =   3.5114561060497E+01
(PID.TID 0000.0001) %MON obc_N_salt_sd                =   3.0984801722386E-01
(PID.TID 0000.0001) %MON obc_S_salt_max               =   3.7318270902396E+01
(PID.TID 0000.0001) %MON obc_S_salt_min               =   3.4844694888241E+01
(PID.TID 0000.0001) %MON obc_S_salt_mean              =   3.5168372147751E+01
(PID.TID 0000.0001) %MON obc_S_salt_sd                =   4.5716724612664E-01
(PID.TID 0000.0001) // =======================================================
(PID.TID 0000.0001) // End OBCS MONITOR field statistics
(PID.TID 0000.0001) // =======================================================
(PID.TID 0000.0001) // =======================================================
(PID.TID 0000.0001) // Begin MONITOR EXF statistics
(PID.TID 0000.0001) // =======================================================
(PID.TID 0000.0001) %MON exf_tsnumber                 =                    11
(PID.TID 0000.0001) %MON exf_time_sec                 =   2.6400000000000E+03
(PID.TID 0000.0001) %MON exf_ustress_max              =   1.1055898578477E+00
(PID.TID 0000.0001) %MON exf_ustress_min              =  -3.4367059528192E-01
(PID.TID 0000.0001) %MON exf_ustress_mean             =   7.0737105501439E-02
(PID.TID 0000.0001) %MON exf_ustress_sd               =   1.6177423600926E-01
(PID.TID 0000.0001) %MON exf_ustress_del2             =   2.8920700110061E-07
(PID.TID 0000.0001) %MON exf_vstress_max              =   4.2412365815437E-01
(PID.TID 0000.0001) %MON exf_vstress_min              =  -4.5710562733467E-01
(PID.TID 0000.0001) %MON exf_vstress_mean             =   1.9846614838583E-02
(PID.TID 0000.0001) %MON exf_vstress_sd               =   1.0930446118549E-01
(PID.TID 0000.0001) %MON exf_vstress_del2             =   2.0760166476528E-07
(PID.TID 0000.0001) %MON exf_hflux_max                =   1.1524170218369E+03
(PID.TID 0000.0001) %MON exf_hflux_min                =  -3.1368425429775E+02
(PID.TID 0000.0001) %MON exf_hflux_mean               =   2.1966618991975E+02
(PID.TID 0000.0001) %MON exf_hflux_sd                 =   1.4699548838608E+02
(PID.TID 0000.0001) %MON exf_hflux_del2               =   5.9759660759357E-02
(PID.TID 0000.0001) %MON exf_sflux_max                =   2.4624707616471E-07
(PID.TID 0000.0001) %MON exf_sflux_min                =  -9.1719000069109E-07
(PID.TID 0000.0001) %MON exf_sflux_mean               =   1.5207851460934E-08
(PID.TID 0000.0001) %MON exf_sflux_sd                 =   1.1347886276481E-07
(PID.TID 0000.0001) %MON exf_sflux_del2               =   2.6113433474644E-11
(PID.TID 0000.0001) %MON exf_uwind_max                =   2.1469469204870E+01
(PID.TID 0000.0001) %MON exf_uwind_min                =  -1.4037403239329E+01
(PID.TID 0000.0001) %MON exf_uwind_mean               =   2.7179536673242E+00
(PID.TID 0000.0001) %MON exf_uwind_sd                 =   6.6292834796774E+00
(PID.TID 0000.0001) %MON exf_uwind_del2               =   1.5993392231968E-03
(PID.TID 0000.0001) %MON exf_vwind_max                =   1.3392386241314E+01
(PID.TID 0000.0001) %MON exf_vwind_min                =  -1.2454445740169E+01
(PID.TID 0000.0001) %MON exf_vwind_mean               =   1.1110387961239E+00
(PID.TID 0000.0001) %MON exf_vwind_sd                 =   5.4526811431452E+00
(PID.TID 0000.0001) %MON exf_vwind_del2               =   1.2502361153050E-03
(PID.TID 0000.0001) %MON exf_wspeed_max               =   2.2069601684617E+01
(PID.TID 0000.0001) %MON exf_wspeed_min               =   6.6243456874365E-03
(PID.TID 0000.0001) %MON exf_wspeed_mean              =   7.9126511273948E+00
(PID.TID 0000.0001) %MON exf_wspeed_sd                =   4.4374274735578E+00
(PID.TID 0000.0001) %MON exf_wspeed_del2              =   2.0298960189442E-03
(PID.TID 0000.0001) %MON exf_atemp_max                =   2.9781097072356E+02
(PID.TID 0000.0001) %MON exf_atemp_min                =   2.7444134248737E+02
(PID.TID 0000.0001) %MON exf_atemp_mean               =   2.9103700522639E+02
(PID.TID 0000.0001) %MON exf_atemp_sd                 =   3.9414133932590E+00
(PID.TID 0000.0001) %MON exf_atemp_del2               =   3.9530295256300E-03
(PID.TID 0000.0001) %MON exf_aqh_max                  =   1.5781802517175E-02
(PID.TID 0000.0001) %MON exf_aqh_min                  =   2.7272423550850E-03
(PID.TID 0000.0001) %MON exf_aqh_mean                 =   1.0086355863962E-02
(PID.TID 0000.0001) %MON exf_aqh_sd                   =   2.5863139742695E-03
(PID.TID 0000.0001) %MON exf_aqh_del2                 =   2.2581754270612E-06
(PID.TID 0000.0001) %MON exf_lwflux_max               =   1.6274841845154E+02
(PID.TID 0000.0001) %MON exf_lwflux_min               =  -2.6732536839298E+01
(PID.TID 0000.0001) %MON exf_lwflux_mean              =   6.9408345652131E+01
(PID.TID 0000.0001) %MON exf_lwflux_sd                =   2.7584166043183E+01
(PID.TID 0000.0001) %MON exf_lwflux_del2              =   1.6313990000167E-02
(PID.TID 0000.0001) %MON exf_evap_max                 =   2.7024796442793E-07
(PID.TID 0000.0001) %MON exf_evap_min                 =  -8.5793719731401E-08
(PID.TID 0000.0001) %MON exf_evap_mean                =   5.0783028164106E-08
(PID.TID 0000.0001) %MON exf_evap_sd                  =   3.7322868675563E-08
(PID.TID 0000.0001) %MON exf_evap_del2                =   1.4213468117433E-11
(PID.TID 0000.0001) %MON exf_precip_max               =   8.9730115001301E-07
(PID.TID 0000.0001) %MON exf_precip_min               =   0.0000000000000E+00
(PID.TID 0000.0001) %MON exf_precip_mean              =   3.3986697131182E-08
(PID.TID 0000.0001) %MON exf_precip_sd                =   1.0039979010422E-07
(PID.TID 0000.0001) %MON exf_precip_del2              =   2.4362033253819E-11
(PID.TID 0000.0001) %MON exf_swflux_max               =   0.0000000000000E+00
(PID.TID 0000.0001) %MON exf_swflux_min               =  -1.3322303300019E+01
(PID.TID 0000.0001) %MON exf_swflux_mean              =  -4.2244193303502E-01
(PID.TID 0000.0001) %MON exf_swflux_sd                =   1.3686782641371E+00
(PID.TID 0000.0001) %MON exf_swflux_del2              =   2.7528826101770E-04
(PID.TID 0000.0001) %MON exf_swdown_max               =   1.4802559222243E+01
(PID.TID 0000.0001) %MON exf_swdown_min               =   0.0000000000000E+00
(PID.TID 0000.0001) %MON exf_swdown_mean              =   4.6937992559446E-01
(PID.TID 0000.0001) %MON exf_swdown_sd                =   1.5207536268190E+00
(PID.TID 0000.0001) %MON exf_swdown_del2              =   3.0587584557522E-04
(PID.TID 0000.0001) %MON exf_lwdown_max               =   4.0802880517875E+02
(PID.TID 0000.0001) %MON exf_lwdown_min               =   2.2791151899168E+02
(PID.TID 0000.0001) %MON exf_lwdown_mean              =   3.4550584139278E+02
(PID.TID 0000.0001) %MON exf_lwdown_sd                =   3.1946614080685E+01
(PID.TID 0000.0001) %MON exf_lwdown_del2              =   7.5723109726556E-02
(PID.TID 0000.0001) %MON exf_apressure_max            =   1.0276384323899E+05
(PID.TID 0000.0001) %MON exf_apressure_min            =   9.9981695616741E+04
(PID.TID 0000.0001) %MON exf_apressure_mean           =   1.0212708597531E+05
(PID.TID 0000.0001) %MON exf_apressure_sd             =   5.0359787550801E+02
(PID.TID 0000.0001) %MON exf_apressure_del2           =   2.2348452905768E+01
(PID.TID 0000.0001) %MON exf_runoff_max               =   4.4374798712073E-08
(PID.TID 0000.0001) %MON exf_runoff_min               =   0.0000000000000E+00
(PID.TID 0000.0001) %MON exf_runoff_mean              =   1.5884795719908E-09
(PID.TID 0000.0001) %MON exf_runoff_sd                =   5.3901959599983E-09
(PID.TID 0000.0001) %MON exf_runoff_del2              =   1.2741189756369E-12
(PID.TID 0000.0001) // =======================================================
(PID.TID 0000.0001) // End MONITOR EXF statistics
(PID.TID 0000.0001) // =======================================================
 cg2d: Sum(rhs),rhsMax =   1.53870977442443E+03  8.00393437179250E-02
(PID.TID 0000.0001)      cg2d_init_res =   1.52791170890458E+00
(PID.TID 0000.0001)      cg2d_iters(min,last) =      -1     312
(PID.TID 0000.0001)      cg2d_last_res =   6.69266541045600E-12
(PID.TID 0000.0001) // =======================================================
(PID.TID 0000.0001) // Begin MONITOR dynamic field statistics
(PID.TID 0000.0001) // =======================================================
(PID.TID 0000.0001) %MON time_tsnumber                =                    12
(PID.TID 0000.0001) %MON time_secondsf                =   2.8800000000000E+03
(PID.TID 0000.0001) %MON dynstat_eta_max              =   8.4061898827564E-01
(PID.TID 0000.0001) %MON dynstat_eta_min              =  -1.1259436220228E+00
(PID.TID 0000.0001) %MON dynstat_eta_mean             =  -5.2327058854363E-02
(PID.TID 0000.0001) %MON dynstat_eta_sd               =   2.5937829907136E-01
(PID.TID 0000.0001) %MON dynstat_eta_del2             =   2.3362020695303E-06
(PID.TID 0000.0001) %MON dynstat_uvel_max             =   1.2810751008342E+00
(PID.TID 0000.0001) %MON dynstat_uvel_min             =  -7.0064286439980E-01
(PID.TID 0000.0001) %MON dynstat_uvel_mean            =   1.7441523439042E-03
(PID.TID 0000.0001) %MON dynstat_uvel_sd              =   5.2283463587660E-02
(PID.TID 0000.0001) %MON dynstat_uvel_del2            =   5.2960182902136E-07
(PID.TID 0000.0001) %MON dynstat_vvel_max             =   2.5498895951784E+00
(PID.TID 0000.0001) %MON dynstat_vvel_min             =  -9.1737952582825E-01
(PID.TID 0000.0001) %MON dynstat_vvel_mean            =  -4.3743843313625E-03
(PID.TID 0000.0001) %MON dynstat_vvel_sd              =   4.9318921711567E-02
(PID.TID 0000.0001) %MON dynstat_vvel_del2            =   4.8384997540074E-07
(PID.TID 0000.0001) %MON dynstat_wvel_max             =   3.5541262048784E-02
(PID.TID 0000.0001) %MON dynstat_wvel_min             =  -3.1935316868557E-02
(PID.TID 0000.0001) %MON dynstat_wvel_mean            =  -1.6058314563893E-05
(PID.TID 0000.0001) %MON dynstat_wvel_sd              =   6.0689134482181E-04
(PID.TID 0000.0001) %MON dynstat_wvel_del2            =   7.2465976157966E-08
(PID.TID 0000.0001) %MON dynstat_theta_max            =   2.6141407068353E+01
(PID.TID 0000.0001) %MON dynstat_theta_min            =   1.4688650786226E+00
(PID.TID 0000.0001) %MON dynstat_theta_mean           =   5.5098787266154E+00
(PID.TID 0000.0001) %MON dynstat_theta_sd             =   4.7733286863233E+00
(PID.TID 0000.0001) %MON dynstat_theta_del2           =   4.0318376300444E-06
(PID.TID 0000.0001) %MON dynstat_salt_max             =   3.9152210324314E+01
(PID.TID 0000.0001) %MON dynstat_salt_min             =   3.3102363111486E+01
(PID.TID 0000.0001) %MON dynstat_salt_mean            =   3.5173366278691E+01
(PID.TID 0000.0001) %MON dynstat_salt_sd              =   3.7891410353014E-01
(PID.TID 0000.0001) %MON dynstat_salt_del2            =   5.2567176384891E-07
(PID.TID 0000.0001) %MON dynstat_sst_max              =   2.6136618996277E+01
(PID.TID 0000.0001) %MON dynstat_sst_min              =   3.9281121658307E+00
(PID.TID 0000.0001) %MON dynstat_sst_mean             =   1.9637845896425E+01
(PID.TID 0000.0001) %MON dynstat_sst_sd               =   3.6385579014399E+00
(PID.TID 0000.0001) %MON dynstat_sst_del2             =   1.9213739214738E-05
(PID.TID 0000.0001) %MON dynstat_sss_max              =   3.7336131473261E+01
(PID.TID 0000.0001) %MON dynstat_sss_min              =   3.3102363111486E+01
(PID.TID 0000.0001) %MON dynstat_sss_mean             =   3.5868388138235E+01
(PID.TID 0000.0001) %MON dynstat_sss_sd               =   4.8717311392514E-01
(PID.TID 0000.0001) %MON dynstat_sss_del2             =   4.9202579079132E-06
(PID.TID 0000.0001) %MON forcing_qnet_max             =   1.1701812985654E+03
(PID.TID 0000.0001) %MON forcing_qnet_min             =  -3.2939673489914E+02
(PID.TID 0000.0001) %MON forcing_qnet_mean            =   2.2125407382360E+02
(PID.TID 0000.0001) %MON forcing_qnet_sd              =   1.5153584249751E+02
(PID.TID 0000.0001) %MON forcing_qnet_del2            =   1.6006539846667E-03
(PID.TID 0000.0001) %MON forcing_qsw_max              =   0.0000000000000E+00
(PID.TID 0000.0001) %MON forcing_qsw_min              =  -1.3322303300019E+01
(PID.TID 0000.0001) %MON forcing_qsw_mean             =  -4.2244193303502E-01
(PID.TID 0000.0001) %MON forcing_qsw_sd               =   1.3686782641371E+00
(PID.TID 0000.0001) %MON forcing_qsw_del2             =   4.7292459531447E-06
(PID.TID 0000.0001) %MON forcing_empmr_max            =   2.4624707616471E-04
(PID.TID 0000.0001) %MON forcing_empmr_min            =  -9.1719000069109E-04
(PID.TID 0000.0001) %MON forcing_empmr_mean           =   1.5207851460934E-05
(PID.TID 0000.0001) %MON forcing_empmr_sd             =   1.1347886276481E-04
(PID.TID 0000.0001) %MON forcing_empmr_del2           =   8.7496088711707E-10
(PID.TID 0000.0001) %MON forcing_fu_max               =   1.1054262221282E+00
(PID.TID 0000.0001) %MON forcing_fu_min               =  -3.4363798035920E-01
(PID.TID 0000.0001) %MON forcing_fu_mean              =   7.0799144425279E-02
(PID.TID 0000.0001) %MON forcing_fu_sd                =   1.6183797760123E-01
(PID.TID 0000.0001) %MON forcing_fu_del2              =   2.3666541515376E-07
(PID.TID 0000.0001) %MON forcing_fv_max               =   4.2411561349349E-01
(PID.TID 0000.0001) %MON forcing_fv_min               =  -4.6034336717147E-01
(PID.TID 0000.0001) %MON forcing_fv_mean              =   1.9854525556112E-02
(PID.TID 0000.0001) %MON forcing_fv_sd                =   1.0944606122457E-01
(PID.TID 0000.0001) %MON forcing_fv_del2              =   1.8280412287935E-07
(PID.TID 0000.0001) %MON trAdv_CFL_u_max              =   7.7723803690387E-02
(PID.TID 0000.0001) %MON trAdv_CFL_v_max              =   1.6111071752499E-01
(PID.TID 0000.0001) %MON trAdv_CFL_w_max              =   5.2056043944320E-01
(PID.TID 0000.0001) %MON advcfl_uvel_max              =   7.7723802632107E-02
(PID.TID 0000.0001) %MON advcfl_vvel_max              =   1.6115759452258E-01
(PID.TID 0000.0001) %MON advcfl_wvel_max              =   5.1188443211914E-01
(PID.TID 0000.0001) %MON advcfl_W_hf_max              =   5.2056043944320E-01
(PID.TID 0000.0001) %MON pe_b_mean                    =  -1.1850375103449E-03
(PID.TID 0000.0001) %MON ke_max                       =   2.9417990469933E+00
(PID.TID 0000.0001) %MON ke_mean                      =   2.5749275544151E-03
(PID.TID 0000.0001) %MON ke_vol                       =   4.5818637279720E+16
(PID.TID 0000.0001) %MON vort_r_min                   =  -5.1734114617005E-04
(PID.TID 0000.0001) %MON vort_r_max                   =   7.4149794564275E-04
(PID.TID 0000.0001) %MON vort_a_mean                  =   8.2147622239582E-05
(PID.TID 0000.0001) %MON vort_a_sd                    =   1.0148588607619E-05
(PID.TID 0000.0001) %MON vort_p_mean                  =   8.4848843520798E-05
(PID.TID 0000.0001) %MON vort_p_sd                    =   3.4979579474169E-05
(PID.TID 0000.0001) %MON surfExpan_theta_mean         =  -3.9837544417866E-04
(PID.TID 0000.0001) %MON surfExpan_salt_mean          =  -1.0086124882853E-03
(PID.TID 0000.0001) // =======================================================
(PID.TID 0000.0001) // End MONITOR dynamic field statistics
(PID.TID 0000.0001) // =======================================================
(PID.TID 0000.0001) // =======================================================
(PID.TID 0000.0001) // Begin OBCS MONITOR field statistics
(PID.TID 0000.0001) // =======================================================
(PID.TID 0000.0001) %MON obc_N_vVel_max               =   6.9445057130833E-01
(PID.TID 0000.0001) %MON obc_N_vVel_min               =  -3.2418597803533E-01
(PID.TID 0000.0001) %MON obc_N_vVel_mean              =   1.3447344925231E-02
(PID.TID 0000.0001) %MON obc_N_vVel_sd                =   6.4566341463581E-02
(PID.TID 0000.0001) %MON obc_N_vVel_Int               =   1.9249987840335E+08
(PID.TID 0000.0001) %MON obc_S_vVel_max               =   2.5498895951784E+00
(PID.TID 0000.0001) %MON obc_S_vVel_min               =  -2.6309677804153E-01
(PID.TID 0000.0001) %MON obc_S_vVel_mean              =  -4.2444228596303E-03
(PID.TID 0000.0001) %MON obc_S_vVel_sd                =   3.6332683878914E-02
(PID.TID 0000.0001) %MON obc_S_vVel_Int               =  -1.2921253928519E+08
(PID.TID 0000.0001) %MON obc_N_theta_max              =   1.6389803818919E+01
(PID.TID 0000.0001) %MON obc_N_theta_min              =   1.8895913157701E+00
(PID.TID 0000.0001) %MON obc_N_theta_mean             =   5.1588918920883E+00
(PID.TID 0000.0001) %MON obc_N_theta_sd               =   3.4826224400858E+00
(PID.TID 0000.0001) %MON obc_S_theta_max              =   2.5543708323453E+01
(PID.TID 0000.0001) %MON obc_S_theta_min              =   1.4633003963337E+00
(PID.TID 0000.0001) %MON obc_S_theta_mean             =   5.4595481199164E+00
(PID.TID 0000.0001) %MON obc_S_theta_sd               =   5.3558905817403E+00
(PID.TID 0000.0001) %MON obc_N_salt_max               =   3.5910862747600E+01
(PID.TID 0000.0001) %MON obc_N_salt_min               =   3.3295080101645E+01
(PID.TID 0000.0001) %MON obc_N_salt_mean              =   3.5114560764510E+01
(PID.TID 0000.0001) %MON obc_N_salt_sd                =   3.0984789812930E-01
(PID.TID 0000.0001) %MON obc_S_salt_max               =   3.7318264018012E+01
(PID.TID 0000.0001) %MON obc_S_salt_min               =   3.4844694940461E+01
(PID.TID 0000.0001) %MON obc_S_salt_mean              =   3.5168372075834E+01
(PID.TID 0000.0001) %MON obc_S_salt_sd                =   4.5716689510142E-01
(PID.TID 0000.0001) // =======================================================
(PID.TID 0000.0001) // End OBCS MONITOR field statistics
(PID.TID 0000.0001) // =======================================================
(PID.TID 0000.0001) // =======================================================
(PID.TID 0000.0001) // Begin MONITOR EXF statistics
(PID.TID 0000.0001) // =======================================================
(PID.TID 0000.0001) %MON exf_tsnumber                 =                    12
(PID.TID 0000.0001) %MON exf_time_sec                 =   2.8800000000000E+03
(PID.TID 0000.0001) %MON exf_ustress_max              =   1.0997133221960E+00
(PID.TID 0000.0001) %MON exf_ustress_min              =  -3.4255656076284E-01
(PID.TID 0000.0001) %MON exf_ustress_mean             =   7.0593109378978E-02
(PID.TID 0000.0001) %MON exf_ustress_sd               =   1.6110609199849E-01
(PID.TID 0000.0001) %MON exf_ustress_del2             =   2.8929537459810E-07
(PID.TID 0000.0001) %MON exf_vstress_max              =   4.2472322085316E-01
(PID.TID 0000.0001) %MON exf_vstress_min              =  -4.5389802561944E-01
(PID.TID 0000.0001) %MON exf_vstress_mean             =   1.9785432181533E-02
(PID.TID 0000.0001) %MON exf_vstress_sd               =   1.0864779817942E-01
(PID.TID 0000.0001) %MON exf_vstress_del2             =   2.0664291426878E-07
(PID.TID 0000.0001) %MON exf_hflux_max                =   1.1518604471792E+03
(PID.TID 0000.0001) %MON exf_hflux_min                =  -3.1329329699732E+02
(PID.TID 0000.0001) %MON exf_hflux_mean               =   2.1952844072262E+02
(PID.TID 0000.0001) %MON exf_hflux_sd                 =   1.4669548740754E+02
(PID.TID 0000.0001) %MON exf_hflux_del2               =   5.9700462087648E-02
(PID.TID 0000.0001) %MON exf_sflux_max                =   2.4632078115397E-07
(PID.TID 0000.0001) %MON exf_sflux_min                =  -9.3061310663616E-07
(PID.TID 0000.0001) %MON exf_sflux_mean               =   1.5189702212153E-08
(PID.TID 0000.0001) %MON exf_sflux_sd                 =   1.1402496847332E-07
(PID.TID 0000.0001) %MON exf_sflux_del2               =   2.6240756665301E-11
(PID.TID 0000.0001) %MON exf_uwind_max                =   2.1421238196602E+01
(PID.TID 0000.0001) %MON exf_uwind_min                =  -1.4019016605341E+01
(PID.TID 0000.0001) %MON exf_uwind_mean               =   2.7195946059626E+00
(PID.TID 0000.0001) %MON exf_uwind_sd                 =   6.6203871467992E+00
(PID.TID 0000.0001) %MON exf_uwind_del2               =   1.5977519870587E-03
(PID.TID 0000.0001) %MON exf_vwind_max                =   1.3345295543557E+01
(PID.TID 0000.0001) %MON exf_vwind_min                =  -1.2403452706156E+01
(PID.TID 0000.0001) %MON exf_vwind_mean               =   1.1120014616088E+00
(PID.TID 0000.0001) %MON exf_vwind_sd                 =   5.4379072520533E+00
(PID.TID 0000.0001) %MON exf_vwind_del2               =   1.2470205985592E-03
(PID.TID 0000.0001) %MON exf_wspeed_max               =   2.2011805351415E+01
(PID.TID 0000.0001) %MON exf_wspeed_min               =   4.5102021505228E-03
(PID.TID 0000.0001) %MON exf_wspeed_mean              =   7.8994322027614E+00
(PID.TID 0000.0001) %MON exf_wspeed_sd                =   4.4308096552226E+00
(PID.TID 0000.0001) %MON exf_wspeed_del2              =   2.0266688154945E-03
(PID.TID 0000.0001) %MON exf_atemp_max                =   2.9780989971165E+02
(PID.TID 0000.0001) %MON exf_atemp_min                =   2.7441081755356E+02
(PID.TID 0000.0001) %MON exf_atemp_mean               =   2.9103470007651E+02
(PID.TID 0000.0001) %MON exf_atemp_sd                 =   3.9405813660124E+00
(PID.TID 0000.0001) %MON exf_atemp_del2               =   3.9524608402260E-03
(PID.TID 0000.0001) %MON exf_aqh_max                  =   1.5777937150462E-02
(PID.TID 0000.0001) %MON exf_aqh_min                  =   2.7282171476425E-03
(PID.TID 0000.0001) %MON exf_aqh_mean                 =   1.0084905133018E-02
(PID.TID 0000.0001) %MON exf_aqh_sd                   =   2.5855291694372E-03
(PID.TID 0000.0001) %MON exf_aqh_del2                 =   2.2577385626851E-06
(PID.TID 0000.0001) %MON exf_lwflux_max               =   1.6272738047335E+02
(PID.TID 0000.0001) %MON exf_lwflux_min               =  -2.6530721174592E+01
(PID.TID 0000.0001) %MON exf_lwflux_mean              =   6.9403291054943E+01
(PID.TID 0000.0001) %MON exf_lwflux_sd                =   2.7657497551447E+01
(PID.TID 0000.0001) %MON exf_lwflux_del2              =   1.6319301858448E-02
(PID.TID 0000.0001) %MON exf_evap_max                 =   2.7030404647028E-07
(PID.TID 0000.0001) %MON exf_evap_min                 =  -8.5381672792153E-08
(PID.TID 0000.0001) %MON exf_evap_mean                =   5.0723512415003E-08
(PID.TID 0000.0001) %MON exf_evap_sd                  =   3.7217287046934E-08
(PID.TID 0000.0001) %MON exf_evap_del2                =   1.4190511753638E-11
(PID.TID 0000.0001) %MON exf_precip_max               =   9.1008097676271E-07
(PID.TID 0000.0001) %MON exf_precip_min               =   0.0000000000000E+00
(PID.TID 0000.0001) %MON exf_precip_mean              =   3.3945330630859E-08
(PID.TID 0000.0001) %MON exf_precip_sd                =   1.0102772117621E-07
(PID.TID 0000.0001) %MON exf_precip_del2              =   2.4498412446598E-11
(PID.TID 0000.0001) %MON exf_swflux_max               =   0.0000000000000E+00
(PID.TID 0000.0001) %MON exf_swflux_min               =  -1.2163842143495E+01
(PID.TID 0000.0001) %MON exf_swflux_mean              =  -3.8570785190154E-01
(PID.TID 0000.0001) %MON exf_swflux_sd                =   1.2496627629078E+00
(PID.TID 0000.0001) %MON exf_swflux_del2              =   2.5135015136399E-04
(PID.TID 0000.0001) %MON exf_swdown_max               =   1.3515380159439E+01
(PID.TID 0000.0001) %MON exf_swdown_min               =   0.0000000000000E+00
(PID.TID 0000.0001) %MON exf_swdown_mean              =   4.2856427989060E-01
(PID.TID 0000.0001) %MON exf_swdown_sd                =   1.3885141810087E+00
(PID.TID 0000.0001) %MON exf_swdown_del2              =   2.7927794595998E-04
(PID.TID 0000.0001) %MON exf_lwdown_max               =   4.0826799112293E+02
(PID.TID 0000.0001) %MON exf_lwdown_min               =   2.2777148434618E+02
(PID.TID 0000.0001) %MON exf_lwdown_mean              =   3.4550746476604E+02
(PID.TID 0000.0001) %MON exf_lwdown_sd                =   3.2039418258602E+01
(PID.TID 0000.0001) %MON exf_lwdown_del2              =   7.5724662932597E-02
(PID.TID 0000.0001) %MON exf_apressure_max            =   1.0276280011732E+05
(PID.TID 0000.0001) %MON exf_apressure_min            =   9.9986840203320E+04
(PID.TID 0000.0001) %MON exf_apressure_mean           =   1.0212654381951E+05
(PID.TID 0000.0001) %MON exf_apressure_sd             =   5.0285231894943E+02
(PID.TID 0000.0001) %MON exf_apressure_del2           =   2.2348332605605E+01
(PID.TID 0000.0001) %MON exf_runoff_max               =   4.4374798712073E-08
(PID.TID 0000.0001) %MON exf_runoff_min               =   0.0000000000000E+00
(PID.TID 0000.0001) %MON exf_runoff_mean              =   1.5884795719908E-09
(PID.TID 0000.0001) %MON exf_runoff_sd                =   5.3901959599983E-09
(PID.TID 0000.0001) %MON exf_runoff_del2              =   1.2741189756369E-12
(PID.TID 0000.0001) // =======================================================
(PID.TID 0000.0001) // End MONITOR EXF statistics
(PID.TID 0000.0001) // =======================================================
 cg2d: Sum(rhs),rhsMax =   1.75193148624879E+03  8.06956557152520E-02
(PID.TID 0000.0001)      cg2d_init_res =   1.44679413808249E+00
(PID.TID 0000.0001)      cg2d_iters(min,last) =      -1     312
(PID.TID 0000.0001)      cg2d_last_res =   6.39372703700132E-12
(PID.TID 0000.0001) // =======================================================
(PID.TID 0000.0001) // Begin MONITOR dynamic field statistics
(PID.TID 0000.0001) // =======================================================
(PID.TID 0000.0001) %MON time_tsnumber                =                    13
(PID.TID 0000.0001) %MON time_secondsf                =   3.1200000000000E+03
(PID.TID 0000.0001) %MON dynstat_eta_max              =   7.9956313496377E-01
(PID.TID 0000.0001) %MON dynstat_eta_min              =  -1.2250749021087E+00
(PID.TID 0000.0001) %MON dynstat_eta_mean             =  -5.9578111163973E-02
(PID.TID 0000.0001) %MON dynstat_eta_sd               =   2.6832310970772E-01
(PID.TID 0000.0001) %MON dynstat_eta_del2             =   2.3626959684369E-06
(PID.TID 0000.0001) %MON dynstat_uvel_max             =   1.2750149102937E+00
(PID.TID 0000.0001) %MON dynstat_uvel_min             =  -7.9132716718289E-01
(PID.TID 0000.0001) %MON dynstat_uvel_mean            =   1.5207520551458E-03
(PID.TID 0000.0001) %MON dynstat_uvel_sd              =   5.2293918515331E-02
(PID.TID 0000.0001) %MON dynstat_uvel_del2            =   5.3764995391191E-07
(PID.TID 0000.0001) %MON dynstat_vvel_max             =   2.6099963963822E+00
(PID.TID 0000.0001) %MON dynstat_vvel_min             =  -9.1662165069433E-01
(PID.TID 0000.0001) %MON dynstat_vvel_mean            =  -4.5798219729303E-03
(PID.TID 0000.0001) %MON dynstat_vvel_sd              =   4.9388425384193E-02
(PID.TID 0000.0001) %MON dynstat_vvel_del2            =   4.9137480231919E-07
(PID.TID 0000.0001) %MON dynstat_wvel_max             =   3.6879466700966E-02
(PID.TID 0000.0001) %MON dynstat_wvel_min             =  -3.2457079103026E-02
(PID.TID 0000.0001) %MON dynstat_wvel_mean            =  -1.7147359681995E-05
(PID.TID 0000.0001) %MON dynstat_wvel_sd              =   6.0857313675082E-04
(PID.TID 0000.0001) %MON dynstat_wvel_del2            =   7.1153792588221E-08
(PID.TID 0000.0001) %MON dynstat_theta_max            =   2.6142891636209E+01
(PID.TID 0000.0001) %MON dynstat_theta_min            =   1.4688652659428E+00
(PID.TID 0000.0001) %MON dynstat_theta_mean           =   5.5098907814000E+00
(PID.TID 0000.0001) %MON dynstat_theta_sd             =   4.7733292677496E+00
(PID.TID 0000.0001) %MON dynstat_theta_del2           =   4.0334843725350E-06
(PID.TID 0000.0001) %MON dynstat_salt_max             =   3.9147989697290E+01
(PID.TID 0000.0001) %MON dynstat_salt_min             =   3.3103741458767E+01
(PID.TID 0000.0001) %MON dynstat_salt_mean            =   3.5173366593516E+01
(PID.TID 0000.0001) %MON dynstat_salt_sd              =   3.7891505885120E-01
(PID.TID 0000.0001) %MON dynstat_salt_del2            =   5.2787226399271E-07
(PID.TID 0000.0001) %MON dynstat_sst_max              =   2.6137820515425E+01
(PID.TID 0000.0001) %MON dynstat_sst_min              =   3.9149054184838E+00
(PID.TID 0000.0001) %MON dynstat_sst_mean             =   1.9637243149593E+01
(PID.TID 0000.0001) %MON dynstat_sst_sd               =   3.6385571169221E+00
(PID.TID 0000.0001) %MON dynstat_sst_del2             =   1.9257211464995E-05
(PID.TID 0000.0001) %MON dynstat_sss_max              =   3.7336201660756E+01
(PID.TID 0000.0001) %MON dynstat_sss_min              =   3.3103741458767E+01
(PID.TID 0000.0001) %MON dynstat_sss_mean             =   3.5868416267336E+01
(PID.TID 0000.0001) %MON dynstat_sss_sd               =   4.8716604300734E-01
(PID.TID 0000.0001) %MON dynstat_sss_del2             =   4.9146979425470E-06
(PID.TID 0000.0001) %MON forcing_qnet_max             =   1.1696284115151E+03
(PID.TID 0000.0001) %MON forcing_qnet_min             =  -3.2857503948836E+02
(PID.TID 0000.0001) %MON forcing_qnet_mean            =   2.2111318565593E+02
(PID.TID 0000.0001) %MON forcing_qnet_sd              =   1.5123813567353E+02
(PID.TID 0000.0001) %MON forcing_qnet_del2            =   1.6007118107122E-03
(PID.TID 0000.0001) %MON forcing_qsw_max              =   0.0000000000000E+00
(PID.TID 0000.0001) %MON forcing_qsw_min              =  -1.2163842143495E+01
(PID.TID 0000.0001) %MON forcing_qsw_mean             =  -3.8570785190154E-01
(PID.TID 0000.0001) %MON forcing_qsw_sd               =   1.2496627629078E+00
(PID.TID 0000.0001) %MON forcing_qsw_del2             =   4.3180071746104E-06
(PID.TID 0000.0001) %MON forcing_empmr_max            =   2.4632078115397E-04
(PID.TID 0000.0001) %MON forcing_empmr_min            =  -9.3061310663616E-04
(PID.TID 0000.0001) %MON forcing_empmr_mean           =   1.5189702212153E-05
(PID.TID 0000.0001) %MON forcing_empmr_sd             =   1.1402496847332E-04
(PID.TID 0000.0001) %MON forcing_empmr_del2           =   8.9677294098548E-10
(PID.TID 0000.0001) %MON forcing_fu_max               =   1.0995552122946E+00
(PID.TID 0000.0001) %MON forcing_fu_min               =  -3.4254539108658E-01
(PID.TID 0000.0001) %MON forcing_fu_mean              =   7.0655236073495E-02
(PID.TID 0000.0001) %MON forcing_fu_sd                =   1.6116954831070E-01
(PID.TID 0000.0001) %MON forcing_fu_del2              =   2.3600778645313E-07
(PID.TID 0000.0001) %MON forcing_fv_max               =   4.2468175161104E-01
(PID.TID 0000.0001) %MON forcing_fv_min               =  -4.5709623233690E-01
(PID.TID 0000.0001) %MON forcing_fv_mean              =   1.9793161919074E-02
(PID.TID 0000.0001) %MON forcing_fv_sd                =   1.0878818499544E-01
(PID.TID 0000.0001) %MON forcing_fv_del2              =   1.8144931142498E-07
(PID.TID 0000.0001) %MON trAdv_CFL_u_max              =   7.7356127307019E-02
(PID.TID 0000.0001) %MON trAdv_CFL_v_max              =   1.6490847013686E-01
(PID.TID 0000.0001) %MON trAdv_CFL_w_max              =   5.2724755136166E-01
(PID.TID 0000.0001) %MON advcfl_uvel_max              =   7.7356126253746E-02
(PID.TID 0000.0001) %MON advcfl_vvel_max              =   1.6495645213381E-01
(PID.TID 0000.0001) %MON advcfl_wvel_max              =   5.1846009217229E-01
(PID.TID 0000.0001) %MON advcfl_W_hf_max              =   5.2724755136166E-01
(PID.TID 0000.0001) %MON pe_b_mean                    =  -1.3549315870718E-03
(PID.TID 0000.0001) %MON ke_max                       =   3.0898540262670E+00
(PID.TID 0000.0001) %MON ke_mean                      =   2.5794279058577E-03
(PID.TID 0000.0001) %MON ke_vol                       =   4.5818637279720E+16
(PID.TID 0000.0001) %MON vort_r_min                   =  -5.1693505491934E-04
(PID.TID 0000.0001) %MON vort_r_max                   =   7.6175564345808E-04
(PID.TID 0000.0001) %MON vort_a_mean                  =   8.2147621412605E-05
(PID.TID 0000.0001) %MON vort_a_sd                    =   1.0151959696093E-05
(PID.TID 0000.0001) %MON vort_p_mean                  =   8.4848842666627E-05
(PID.TID 0000.0001) %MON vort_p_sd                    =   3.4982705071697E-05
(PID.TID 0000.0001) %MON surfExpan_theta_mean         =  -4.3810845388521E-04
(PID.TID 0000.0001) %MON surfExpan_salt_mean          =  -1.0719008848475E-03
(PID.TID 0000.0001) // =======================================================
(PID.TID 0000.0001) // End MONITOR dynamic field statistics
(PID.TID 0000.0001) // =======================================================
(PID.TID 0000.0001) // =======================================================
(PID.TID 0000.0001) // Begin OBCS MONITOR field statistics
(PID.TID 0000.0001) // =======================================================
(PID.TID 0000.0001) %MON obc_N_vVel_max               =   6.9426531208340E-01
(PID.TID 0000.0001) %MON obc_N_vVel_min               =  -3.2452656104798E-01
(PID.TID 0000.0001) %MON obc_N_vVel_mean              =   1.3381664447098E-02
(PID.TID 0000.0001) %MON obc_N_vVel_sd                =   6.4543608601926E-02
(PID.TID 0000.0001) %MON obc_N_vVel_Int               =   1.9155965681133E+08
(PID.TID 0000.0001) %MON obc_S_vVel_max               =   2.6099963963822E+00
(PID.TID 0000.0001) %MON obc_S_vVel_min               =  -2.6315746208509E-01
(PID.TID 0000.0001) %MON obc_S_vVel_mean              =  -4.9235880448266E-03
(PID.TID 0000.0001) %MON obc_S_vVel_sd                =   3.6409914101142E-02
(PID.TID 0000.0001) %MON obc_S_vVel_Int               =  -1.4988829687946E+08
(PID.TID 0000.0001) %MON obc_N_theta_max              =   1.6389715716732E+01
(PID.TID 0000.0001) %MON obc_N_theta_min              =   1.8895913648355E+00
(PID.TID 0000.0001) %MON obc_N_theta_mean             =   5.1588845079383E+00
(PID.TID 0000.0001) %MON obc_N_theta_sd               =   3.4826131499335E+00
(PID.TID 0000.0001) %MON obc_S_theta_max              =   2.5543605574674E+01
(PID.TID 0000.0001) %MON obc_S_theta_min              =   1.4633007926210E+00
(PID.TID 0000.0001) %MON obc_S_theta_mean             =   5.4595473148918E+00
(PID.TID 0000.0001) %MON obc_S_theta_sd               =   5.3558867108083E+00
(PID.TID 0000.0001) %MON obc_N_salt_max               =   3.5910862339236E+01
(PID.TID 0000.0001) %MON obc_N_salt_min               =   3.3295085604278E+01
(PID.TID 0000.0001) %MON obc_N_salt_mean              =   3.5114560468523E+01
(PID.TID 0000.0001) %MON obc_N_salt_sd                =   3.0984777910560E-01
(PID.TID 0000.0001) %MON obc_S_salt_max               =   3.7318257133628E+01
(PID.TID 0000.0001) %MON obc_S_salt_min               =   3.4844694992682E+01
(PID.TID 0000.0001) %MON obc_S_salt_mean              =   3.5168372003918E+01
(PID.TID 0000.0001) %MON obc_S_salt_sd                =   4.5716654409228E-01
(PID.TID 0000.0001) // =======================================================
(PID.TID 0000.0001) // End OBCS MONITOR field statistics
(PID.TID 0000.0001) // =======================================================
(PID.TID 0000.0001) // =======================================================
(PID.TID 0000.0001) // Begin MONITOR EXF statistics
(PID.TID 0000.0001) // =======================================================
(PID.TID 0000.0001) %MON exf_tsnumber                 =                    13
(PID.TID 0000.0001) %MON exf_time_sec                 =   3.1200000000000E+03
(PID.TID 0000.0001) %MON exf_ustress_max              =   1.0940209384926E+00
(PID.TID 0000.0001) %MON exf_ustress_min              =  -3.4153167564385E-01
(PID.TID 0000.0001) %MON exf_ustress_mean             =   7.0462173383614E-02
(PID.TID 0000.0001) %MON exf_ustress_sd               =   1.6048379708220E-01
(PID.TID 0000.0001) %MON exf_ustress_del2             =   2.8992060916982E-07
(PID.TID 0000.0001) %MON exf_vstress_max              =   4.2534267420474E-01
(PID.TID 0000.0001) %MON exf_vstress_min              =  -4.5073556028675E-01
(PID.TID 0000.0001) %MON exf_vstress_mean             =   1.9736088437498E-02
(PID.TID 0000.0001) %MON exf_vstress_sd               =   1.0804873478551E-01
(PID.TID 0000.0001) %MON exf_vstress_del2             =   2.0584499577931E-07
(PID.TID 0000.0001) %MON exf_hflux_max                =   1.1513795943235E+03
(PID.TID 0000.0001) %MON exf_hflux_min                =  -3.1291640930508E+02
(PID.TID 0000.0001) %MON exf_hflux_mean               =   2.1940262350468E+02
(PID.TID 0000.0001) %MON exf_hflux_sd                 =   1.4641678382393E+02
(PID.TID 0000.0001) %MON exf_hflux_del2               =   5.9646184920767E-02
(PID.TID 0000.0001) %MON exf_sflux_max                =   2.4643201813373E-07
(PID.TID 0000.0001) %MON exf_sflux_min                =  -9.4404234334945E-07
(PID.TID 0000.0001) %MON exf_sflux_mean               =   1.5175016654555E-08
(PID.TID 0000.0001) %MON exf_sflux_sd                 =   1.1463849829860E-07
(PID.TID 0000.0001) %MON exf_sflux_del2               =   2.6383281455748E-11
(PID.TID 0000.0001) %MON exf_uwind_max                =   2.1374675404457E+01
(PID.TID 0000.0001) %MON exf_uwind_min                =  -1.4002559220366E+01
(PID.TID 0000.0001) %MON exf_uwind_mean               =   2.7212587624021E+00
(PID.TID 0000.0001) %MON exf_uwind_sd                 =   6.6119505328814E+00
(PID.TID 0000.0001) %MON exf_uwind_del2               =   1.5962562190673E-03
(PID.TID 0000.0001) %MON exf_vwind_max                =   1.3298957414718E+01
(PID.TID 0000.0001) %MON exf_vwind_min                =  -1.2352568675354E+01
(PID.TID 0000.0001) %MON exf_vwind_mean               =   1.1129446088255E+00
(PID.TID 0000.0001) %MON exf_vwind_sd                 =   5.4240762853762E+00
(PID.TID 0000.0001) %MON exf_vwind_del2               =   1.2440226591947E-03
(PID.TID 0000.0001) %MON exf_wspeed_max               =   2.1955735589511E+01
(PID.TID 0000.0001) %MON exf_wspeed_min               =   1.3743402413894E-02
(PID.TID 0000.0001) %MON exf_wspeed_mean              =   7.8868858888473E+00
(PID.TID 0000.0001) %MON exf_wspeed_sd                =   4.4248637639385E+00
(PID.TID 0000.0001) %MON exf_wspeed_del2              =   2.0236485231871E-03
(PID.TID 0000.0001) %MON exf_atemp_max                =   2.9780882869974E+02
(PID.TID 0000.0001) %MON exf_atemp_min                =   2.7438029261975E+02
(PID.TID 0000.0001) %MON exf_atemp_mean               =   2.9103239492664E+02
(PID.TID 0000.0001) %MON exf_atemp_sd                 =   3.9398369534837E+00
(PID.TID 0000.0001) %MON exf_atemp_del2               =   3.9518964643500E-03
(PID.TID 0000.0001) %MON exf_aqh_max                  =   1.5774071783750E-02
(PID.TID 0000.0001) %MON exf_aqh_min                  =   2.7291919402001E-03
(PID.TID 0000.0001) %MON exf_aqh_mean                 =   1.0083454402073E-02
(PID.TID 0000.0001) %MON exf_aqh_sd                   =   2.5848772239852E-03
(PID.TID 0000.0001) %MON exf_aqh_del2                 =   2.2573097790809E-06
(PID.TID 0000.0001) %MON exf_lwflux_max               =   1.6270646765416E+02
(PID.TID 0000.0001) %MON exf_lwflux_min               =  -2.6329271090481E+01
(PID.TID 0000.0001) %MON exf_lwflux_mean              =   6.9398386405932E+01
(PID.TID 0000.0001) %MON exf_lwflux_sd                =   2.7736596000836E+01
(PID.TID 0000.0001) %MON exf_lwflux_del2              =   1.6325167585318E-02
(PID.TID 0000.0001) %MON exf_evap_max                 =   2.7046105065314E-07
(PID.TID 0000.0001) %MON exf_evap_min                 =  -8.4973734378239E-08
(PID.TID 0000.0001) %MON exf_evap_mean                =   5.0667460357083E-08
(PID.TID 0000.0001) %MON exf_evap_sd                  =   3.7118089323504E-08
(PID.TID 0000.0001) %MON exf_evap_del2                =   1.4169082172892E-11
(PID.TID 0000.0001) %MON exf_precip_max               =   9.2286080351240E-07
(PID.TID 0000.0001) %MON exf_precip_min               =   0.0000000000000E+00
(PID.TID 0000.0001) %MON exf_precip_mean              =   3.3903964130536E-08
(PID.TID 0000.0001) %MON exf_precip_sd                =   1.0171949650494E-07
(PID.TID 0000.0001) %MON exf_precip_del2              =   2.4648385300399E-11
(PID.TID 0000.0001) %MON exf_swflux_max               =   0.0000000000000E+00
(PID.TID 0000.0001) %MON exf_swflux_min               =  -1.1005380986972E+01
(PID.TID 0000.0001) %MON exf_swflux_mean              =  -3.4897377076806E-01
(PID.TID 0000.0001) %MON exf_swflux_sd                =   1.1306472616785E+00
(PID.TID 0000.0001) %MON exf_swflux_del2              =   2.2741204171027E-04
(PID.TID 0000.0001) %MON exf_swdown_max               =   1.2228201096636E+01
(PID.TID 0000.0001) %MON exf_swdown_min               =   0.0000000000000E+00
(PID.TID 0000.0001) %MON exf_swdown_mean              =   3.8774863418673E-01
(PID.TID 0000.0001) %MON exf_swdown_sd                =   1.2562747351983E+00
(PID.TID 0000.0001) %MON exf_swdown_del2              =   2.5268004634475E-04
(PID.TID 0000.0001) %MON exf_lwdown_max               =   4.0854953034958E+02
(PID.TID 0000.0001) %MON exf_lwdown_min               =   2.2763144970068E+02
(PID.TID 0000.0001) %MON exf_lwdown_mean              =   3.4550908813931E+02
(PID.TID 0000.0001) %MON exf_lwdown_sd                =   3.2137375020129E+01
(PID.TID 0000.0001) %MON exf_lwdown_del2              =   7.5726335451413E-02
(PID.TID 0000.0001) %MON exf_apressure_max            =   1.0276175699565E+05
(PID.TID 0000.0001) %MON exf_apressure_min            =   9.9991984789899E+04
(PID.TID 0000.0001) %MON exf_apressure_mean           =   1.0212600166371E+05
(PID.TID 0000.0001) %MON exf_apressure_sd             =   5.0212794561777E+02
(PID.TID 0000.0001) %MON exf_apressure_del2           =   2.2348212329913E+01
(PID.TID 0000.0001) %MON exf_runoff_max               =   4.4374798712073E-08
(PID.TID 0000.0001) %MON exf_runoff_min               =   0.0000000000000E+00
(PID.TID 0000.0001) %MON exf_runoff_mean              =   1.5884795719908E-09
(PID.TID 0000.0001) %MON exf_runoff_sd                =   5.3901959599983E-09
(PID.TID 0000.0001) %MON exf_runoff_del2              =   1.2741189756369E-12
(PID.TID 0000.0001) // =======================================================
(PID.TID 0000.0001) // End MONITOR EXF statistics
(PID.TID 0000.0001) // =======================================================
 cg2d: Sum(rhs),rhsMax =   1.97721784889041E+03  8.02902964535977E-02
(PID.TID 0000.0001)      cg2d_init_res =   1.43191884448112E+00
(PID.TID 0000.0001)      cg2d_iters(min,last) =      -1     311
(PID.TID 0000.0001)      cg2d_last_res =   6.82972325819343E-12
(PID.TID 0000.0001) // =======================================================
(PID.TID 0000.0001) // Begin MONITOR dynamic field statistics
(PID.TID 0000.0001) // =======================================================
(PID.TID 0000.0001) %MON time_tsnumber                =                    14
(PID.TID 0000.0001) %MON time_secondsf                =   3.3600000000000E+03
(PID.TID 0000.0001) %MON dynstat_eta_max              =   8.3429474988539E-01
(PID.TID 0000.0001) %MON dynstat_eta_min              =  -1.3078186063497E+00
(PID.TID 0000.0001) %MON dynstat_eta_mean             =  -6.7239447273600E-02
(PID.TID 0000.0001) %MON dynstat_eta_sd               =   2.7660106540306E-01
(PID.TID 0000.0001) %MON dynstat_eta_del2             =   2.4259651666525E-06
(PID.TID 0000.0001) %MON dynstat_uvel_max             =   1.2700834789011E+00
(PID.TID 0000.0001) %MON dynstat_uvel_min             =  -8.7739311967077E-01
(PID.TID 0000.0001) %MON dynstat_uvel_mean            =   1.3031476649553E-03
(PID.TID 0000.0001) %MON dynstat_uvel_sd              =   5.2311157840809E-02
(PID.TID 0000.0001) %MON dynstat_uvel_del2            =   5.4562986212856E-07
(PID.TID 0000.0001) %MON dynstat_vvel_max             =   2.6695680775817E+00
(PID.TID 0000.0001) %MON dynstat_vvel_min             =  -9.1558005423629E-01
(PID.TID 0000.0001) %MON dynstat_vvel_mean            =  -4.7570605219809E-03
(PID.TID 0000.0001) %MON dynstat_vvel_sd              =   4.9445873274514E-02
(PID.TID 0000.0001) %MON dynstat_vvel_del2            =   4.9925351815051E-07
(PID.TID 0000.0001) %MON dynstat_wvel_max             =   3.8239383951715E-02
(PID.TID 0000.0001) %MON dynstat_wvel_min             =  -3.2884107387911E-02
(PID.TID 0000.0001) %MON dynstat_wvel_mean            =  -1.8215462753851E-05
(PID.TID 0000.0001) %MON dynstat_wvel_sd              =   6.1017297118083E-04
(PID.TID 0000.0001) %MON dynstat_wvel_del2            =   7.0543009930328E-08
(PID.TID 0000.0001) %MON dynstat_theta_max            =   2.6144353739635E+01
(PID.TID 0000.0001) %MON dynstat_theta_min            =   1.4688654657087E+00
(PID.TID 0000.0001) %MON dynstat_theta_mean           =   5.5099045463098E+00
(PID.TID 0000.0001) %MON dynstat_theta_sd             =   4.7733323620726E+00
(PID.TID 0000.0001) %MON dynstat_theta_del2           =   4.0344063598643E-06
(PID.TID 0000.0001) %MON dynstat_salt_max             =   3.9143589969149E+01
(PID.TID 0000.0001) %MON dynstat_salt_min             =   3.3105140237999E+01
(PID.TID 0000.0001) %MON dynstat_salt_mean            =   3.5173367000528E+01
(PID.TID 0000.0001) %MON dynstat_salt_sd              =   3.7891606707055E-01
(PID.TID 0000.0001) %MON dynstat_salt_del2            =   5.2975885916330E-07
(PID.TID 0000.0001) %MON dynstat_sst_max              =   2.6138936823376E+01
(PID.TID 0000.0001) %MON dynstat_sst_min              =   3.9017930950793E+00
(PID.TID 0000.0001) %MON dynstat_sst_mean             =   1.9636664115638E+01
(PID.TID 0000.0001) %MON dynstat_sst_sd               =   3.6385569653960E+00
(PID.TID 0000.0001) %MON dynstat_sst_del2             =   1.9306956682610E-05
(PID.TID 0000.0001) %MON dynstat_sss_max              =   3.7336269502488E+01
(PID.TID 0000.0001) %MON dynstat_sss_min              =   3.3105140237999E+01
(PID.TID 0000.0001) %MON dynstat_sss_mean             =   3.5868443250228E+01
(PID.TID 0000.0001) %MON dynstat_sss_sd               =   4.8715839688173E-01
(PID.TID 0000.0001) %MON dynstat_sss_del2             =   4.9095206229895E-06
(PID.TID 0000.0001) %MON forcing_qnet_max             =   1.1691486423422E+03
(PID.TID 0000.0001) %MON forcing_qnet_min             =  -3.2776867820723E+02
(PID.TID 0000.0001) %MON forcing_qnet_mean            =   2.2098443164023E+02
(PID.TID 0000.0001) %MON forcing_qnet_sd              =   1.5096370215231E+02
(PID.TID 0000.0001) %MON forcing_qnet_del2            =   1.5980530934355E-03
(PID.TID 0000.0001) %MON forcing_qsw_max              =   0.0000000000000E+00
(PID.TID 0000.0001) %MON forcing_qsw_min              =  -1.1005380986972E+01
(PID.TID 0000.0001) %MON forcing_qsw_mean             =  -3.4897377076806E-01
(PID.TID 0000.0001) %MON forcing_qsw_sd               =   1.1306472616785E+00
(PID.TID 0000.0001) %MON forcing_qsw_del2             =   3.9067683960761E-06
(PID.TID 0000.0001) %MON forcing_empmr_max            =   2.4643201813373E-04
(PID.TID 0000.0001) %MON forcing_empmr_min            =  -9.4404234334945E-04
(PID.TID 0000.0001) %MON forcing_empmr_mean           =   1.5175016654555E-05
(PID.TID 0000.0001) %MON forcing_empmr_sd             =   1.1463849829860E-04
(PID.TID 0000.0001) %MON forcing_empmr_del2           =   9.1995972032656E-10
(PID.TID 0000.0001) %MON forcing_fu_max               =   1.0938645111752E+00
(PID.TID 0000.0001) %MON forcing_fu_min               =  -3.4147811052387E-01
(PID.TID 0000.0001) %MON forcing_fu_mean              =   7.0524391059346E-02
(PID.TID 0000.0001) %MON forcing_fu_sd                =   1.6054698751705E-01
(PID.TID 0000.0001) %MON forcing_fu_del2              =   2.3574492512271E-07
(PID.TID 0000.0001) %MON forcing_fv_max               =   4.2530279166448E-01
(PID.TID 0000.0001) %MON forcing_fv_min               =  -4.5398355687319E-01
(PID.TID 0000.0001) %MON forcing_fv_mean              =   1.9743653325854E-02
(PID.TID 0000.0001) %MON forcing_fv_sd                =   1.0818795083858E-01
(PID.TID 0000.0001) %MON forcing_fv_del2              =   1.8043795404729E-07
(PID.TID 0000.0001) %MON trAdv_CFL_u_max              =   7.7056933602280E-02
(PID.TID 0000.0001) %MON trAdv_CFL_v_max              =   1.6867241204257E-01
(PID.TID 0000.0001) %MON trAdv_CFL_w_max              =   5.3118936042020E-01
(PID.TID 0000.0001) %MON advcfl_uvel_max              =   7.7056932553081E-02
(PID.TID 0000.0001) %MON advcfl_vvel_max              =   1.6872148920127E-01
(PID.TID 0000.0001) %MON advcfl_wvel_max              =   5.2233620441319E-01
(PID.TID 0000.0001) %MON advcfl_W_hf_max              =   5.3118936042020E-01
(PID.TID 0000.0001) %MON pe_b_mean                    =  -1.5349575854540E-03
(PID.TID 0000.0001) %MON ke_max                       =   3.2432826065076E+00
(PID.TID 0000.0001) %MON ke_mean                      =   2.5836569838494E-03
(PID.TID 0000.0001) %MON ke_vol                       =   4.5818637279720E+16
(PID.TID 0000.0001) %MON vort_r_min                   =  -5.1602895838429E-04
(PID.TID 0000.0001) %MON vort_r_max                   =   7.7861654084899E-04
(PID.TID 0000.0001) %MON vort_a_mean                  =   8.2147620580607E-05
(PID.TID 0000.0001) %MON vort_a_sd                    =   1.0155276926045E-05
(PID.TID 0000.0001) %MON vort_p_mean                  =   8.4848841807272E-05
(PID.TID 0000.0001) %MON vort_p_sd                    =   3.4986173160396E-05
(PID.TID 0000.0001) %MON surfExpan_theta_mean         =  -4.7635763957453E-04
(PID.TID 0000.0001) %MON surfExpan_salt_mean          =  -1.1336531180904E-03
(PID.TID 0000.0001) // =======================================================
(PID.TID 0000.0001) // End MONITOR dynamic field statistics
(PID.TID 0000.0001) // =======================================================
(PID.TID 0000.0001) // =======================================================
(PID.TID 0000.0001) // Begin OBCS MONITOR field statistics
(PID.TID 0000.0001) // =======================================================
(PID.TID 0000.0001) %MON obc_N_vVel_max               =   6.9406954362584E-01
(PID.TID 0000.0001) %MON obc_N_vVel_min               =  -3.2488788876920E-01
(PID.TID 0000.0001) %MON obc_N_vVel_mean              =   1.3301629419791E-02
(PID.TID 0000.0001) %MON obc_N_vVel_sd                =   6.4519750541269E-02
(PID.TID 0000.0001) %MON obc_N_vVel_Int               =   1.9041394863546E+08
(PID.TID 0000.0001) %MON obc_S_vVel_max               =   2.6695680775817E+00
(PID.TID 0000.0001) %MON obc_S_vVel_min               =  -2.6321008674783E-01
(PID.TID 0000.0001) %MON obc_S_vVel_mean              =  -5.5958545034757E-03
(PID.TID 0000.0001) %MON obc_S_vVel_sd                =   3.6491707287936E-02
(PID.TID 0000.0001) %MON obc_S_vVel_Int               =  -1.7035403723358E+08
(PID.TID 0000.0001) %MON obc_N_theta_max              =   1.6389627614545E+01
(PID.TID 0000.0001) %MON obc_N_theta_min              =   1.8895914139009E+00
(PID.TID 0000.0001) %MON obc_N_theta_mean             =   5.1588771237882E+00
(PID.TID 0000.0001) %MON obc_N_theta_sd               =   3.4826038600191E+00
(PID.TID 0000.0001) %MON obc_S_theta_max              =   2.5543502825894E+01
(PID.TID 0000.0001) %MON obc_S_theta_min              =   1.4633011889082E+00
(PID.TID 0000.0001) %MON obc_S_theta_mean             =   5.4595465098672E+00
(PID.TID 0000.0001) %MON obc_S_theta_sd               =   5.3558828399123E+00
(PID.TID 0000.0001) %MON obc_N_salt_max               =   3.5910861930873E+01
(PID.TID 0000.0001) %MON obc_N_salt_min               =   3.3295091106912E+01
(PID.TID 0000.0001) %MON obc_N_salt_mean              =   3.5114560172537E+01
(PID.TID 0000.0001) %MON obc_N_salt_sd                =   3.0984766009526E-01
(PID.TID 0000.0001) %MON obc_S_salt_max               =   3.7318250249244E+01
(PID.TID 0000.0001) %MON obc_S_salt_min               =   3.4844695044902E+01
(PID.TID 0000.0001) %MON obc_S_salt_mean              =   3.5168371932001E+01
(PID.TID 0000.0001) %MON obc_S_salt_sd                =   4.5716619308913E-01
(PID.TID 0000.0001) // =======================================================
(PID.TID 0000.0001) // End OBCS MONITOR field statistics
(PID.TID 0000.0001) // =======================================================
(PID.TID 0000.0001) // =======================================================
(PID.TID 0000.0001) // Begin MONITOR EXF statistics
(PID.TID 0000.0001) // =======================================================
(PID.TID 0000.0001) %MON exf_tsnumber                 =                    14
(PID.TID 0000.0001) %MON exf_time_sec                 =   3.3600000000000E+03
(PID.TID 0000.0001) %MON exf_ustress_max              =   1.0885341425395E+00
(PID.TID 0000.0001) %MON exf_ustress_min              =  -3.4052925362436E-01
(PID.TID 0000.0001) %MON exf_ustress_mean             =   7.0344151901638E-02
(PID.TID 0000.0001) %MON exf_ustress_sd               =   1.5990599598230E-01
(PID.TID 0000.0001) %MON exf_ustress_del2             =   2.9061699784083E-07
(PID.TID 0000.0001) %MON exf_vstress_max              =   4.2601659624782E-01
(PID.TID 0000.0001) %MON exf_vstress_min              =  -4.4767101298233E-01
(PID.TID 0000.0001) %MON exf_vstress_mean             =   1.9698038601440E-02
(PID.TID 0000.0001) %MON exf_vstress_sd               =   1.0750500058715E-01
(PID.TID 0000.0001) %MON exf_vstress_del2             =   2.0531632778220E-07
(PID.TID 0000.0001) %MON exf_hflux_max                =   1.1510954554895E+03
(PID.TID 0000.0001) %MON exf_hflux_min                =  -3.1255385398476E+02
(PID.TID 0000.0001) %MON exf_hflux_mean               =   2.1928836390801E+02
(PID.TID 0000.0001) %MON exf_hflux_sd                 =   1.4615897665321E+02
(PID.TID 0000.0001) %MON exf_hflux_del2               =   5.9596578462083E-02
(PID.TID 0000.0001) %MON exf_sflux_max                =   2.4657293234372E-07
(PID.TID 0000.0001) %MON exf_sflux_min                =  -9.5747942652789E-07
(PID.TID 0000.0001) %MON exf_sflux_mean               =   1.5163645511225E-08
(PID.TID 0000.0001) %MON exf_sflux_sd                 =   1.1531815863681E-07
(PID.TID 0000.0001) %MON exf_sflux_del2               =   2.6540659413507E-11
(PID.TID 0000.0001) %MON exf_uwind_max                =   2.1327654812689E+01
(PID.TID 0000.0001) %MON exf_uwind_min                =  -1.3986313438494E+01
(PID.TID 0000.0001) %MON exf_uwind_mean               =   2.7229413674808E+00
(PID.TID 0000.0001) %MON exf_uwind_sd                 =   6.6039671700220E+00
(PID.TID 0000.0001) %MON exf_uwind_del2               =   1.5948507887542E-03
(PID.TID 0000.0001) %MON exf_vwind_max                =   1.3275529744305E+01
(PID.TID 0000.0001) %MON exf_vwind_min                =  -1.2302380972272E+01
(PID.TID 0000.0001) %MON exf_vwind_mean               =   1.1138635345748E+00
(PID.TID 0000.0001) %MON exf_vwind_sd                 =   5.4111804635116E+00
(PID.TID 0000.0001) %MON exf_vwind_del2               =   1.2412397915157E-03
(PID.TID 0000.0001) %MON exf_wspeed_max               =   2.1901210452808E+01
(PID.TID 0000.0001) %MON exf_wspeed_min               =   4.1794233945828E-03
(PID.TID 0000.0001) %MON exf_wspeed_mean              =   7.8750036951007E+00
(PID.TID 0000.0001) %MON exf_wspeed_sd                =   4.4195785837523E+00
(PID.TID 0000.0001) %MON exf_wspeed_del2              =   2.0208323154297E-03
(PID.TID 0000.0001) %MON exf_atemp_max                =   2.9780775768783E+02
(PID.TID 0000.0001) %MON exf_atemp_min                =   2.7434976768595E+02
(PID.TID 0000.0001) %MON exf_atemp_mean               =   2.9103008977677E+02
(PID.TID 0000.0001) %MON exf_atemp_sd                 =   3.9391802053444E+00
(PID.TID 0000.0001) %MON exf_atemp_del2               =   3.9513363998486E-03
(PID.TID 0000.0001) %MON exf_aqh_max                  =   1.5770206417037E-02
(PID.TID 0000.0001) %MON exf_aqh_min                  =   2.7301667327576E-03
(PID.TID 0000.0001) %MON exf_aqh_mean                 =   1.0082003671129E-02
(PID.TID 0000.0001) %MON exf_aqh_sd                   =   2.5843582384611E-03
(PID.TID 0000.0001) %MON exf_aqh_del2                 =   2.2568890808544E-06
(PID.TID 0000.0001) %MON exf_lwflux_max               =   1.6268565746412E+02
(PID.TID 0000.0001) %MON exf_lwflux_min               =  -2.6754128145450E+01
(PID.TID 0000.0001) %MON exf_lwflux_mean              =   6.9393612911478E+01
(PID.TID 0000.0001) %MON exf_lwflux_sd                =   2.7821404056687E+01
(PID.TID 0000.0001) %MON exf_lwflux_del2              =   1.6331581821431E-02
(PID.TID 0000.0001) %MON exf_evap_max                 =   2.7072204746055E-07
(PID.TID 0000.0001) %MON exf_evap_min                 =  -8.4569979362660E-08
(PID.TID 0000.0001) %MON exf_evap_mean                =   5.0614722713429E-08
(PID.TID 0000.0001) %MON exf_evap_sd                  =   3.7025164335796E-08
(PID.TID 0000.0001) %MON exf_evap_del2                =   1.4149162899717E-11
(PID.TID 0000.0001) %MON exf_precip_max               =   9.3564063026210E-07
(PID.TID 0000.0001) %MON exf_precip_min               =   0.0000000000000E+00
(PID.TID 0000.0001) %MON exf_precip_mean              =   3.3862597630214E-08
(PID.TID 0000.0001) %MON exf_precip_sd                =   1.0247382310842E-07
(PID.TID 0000.0001) %MON exf_precip_del2              =   2.4811705318258E-11
(PID.TID 0000.0001) %MON exf_swflux_max               =   0.0000000000000E+00
(PID.TID 0000.0001) %MON exf_swflux_min               =  -9.8469198304486E+00
(PID.TID 0000.0001) %MON exf_swflux_mean              =  -3.1223968963458E-01
(PID.TID 0000.0001) %MON exf_swflux_sd                =   1.0116317604492E+00
(PID.TID 0000.0001) %MON exf_swflux_del2              =   2.0347393205656E-04
(PID.TID 0000.0001) %MON exf_swdown_max               =   1.0941022033832E+01
(PID.TID 0000.0001) %MON exf_swdown_min               =   0.0000000000000E+00
(PID.TID 0000.0001) %MON exf_swdown_mean              =   3.4693298848287E-01
(PID.TID 0000.0001) %MON exf_swdown_sd                =   1.1240352893880E+00
(PID.TID 0000.0001) %MON exf_swdown_del2              =   2.2608214672951E-04
(PID.TID 0000.0001) %MON exf_lwdown_max               =   4.0883106957622E+02
(PID.TID 0000.0001) %MON exf_lwdown_min               =   2.2749141505517E+02
(PID.TID 0000.0001) %MON exf_lwdown_mean              =   3.4551071151257E+02
(PID.TID 0000.0001) %MON exf_lwdown_sd                =   3.2240437399707E+01
(PID.TID 0000.0001) %MON exf_lwdown_del2              =   7.5728127275098E-02
(PID.TID 0000.0001) %MON exf_apressure_max            =   1.0276071387399E+05
(PID.TID 0000.0001) %MON exf_apressure_min            =   9.9997129376479E+04
(PID.TID 0000.0001) %MON exf_apressure_mean           =   1.0212545950791E+05
(PID.TID 0000.0001) %MON exf_apressure_sd             =   5.0142484731883E+02
(PID.TID 0000.0001) %MON exf_apressure_del2           =   2.2348092078693E+01
(PID.TID 0000.0001) %MON exf_runoff_max               =   4.4374798712073E-08
(PID.TID 0000.0001) %MON exf_runoff_min               =   0.0000000000000E+00
(PID.TID 0000.0001) %MON exf_runoff_mean              =   1.5884795719908E-09
(PID.TID 0000.0001) %MON exf_runoff_sd                =   5.3901959599983E-09
(PID.TID 0000.0001) %MON exf_runoff_del2              =   1.2741189756369E-12
(PID.TID 0000.0001) // =======================================================
(PID.TID 0000.0001) // End MONITOR EXF statistics
(PID.TID 0000.0001) // =======================================================
 cg2d: Sum(rhs),rhsMax =   2.21429472337916E+03  7.89526537606985E-02
(PID.TID 0000.0001)      cg2d_init_res =   1.46624450299269E+00
(PID.TID 0000.0001)      cg2d_iters(min,last) =      -1     311
(PID.TID 0000.0001)      cg2d_last_res =   6.54856115134121E-12
(PID.TID 0000.0001) // =======================================================
(PID.TID 0000.0001) // Begin MONITOR dynamic field statistics
(PID.TID 0000.0001) // =======================================================
(PID.TID 0000.0001) %MON time_tsnumber                =                    15
(PID.TID 0000.0001) %MON time_secondsf                =   3.6000000000000E+03
(PID.TID 0000.0001) %MON dynstat_eta_max              =   8.2084874639364E-01
(PID.TID 0000.0001) %MON dynstat_eta_min              =  -1.3858583702862E+00
(PID.TID 0000.0001) %MON dynstat_eta_mean             =  -7.5301744511571E-02
(PID.TID 0000.0001) %MON dynstat_eta_sd               =   2.8424065924541E-01
(PID.TID 0000.0001) %MON dynstat_eta_del2             =   2.4907576798485E-06
(PID.TID 0000.0001) %MON dynstat_uvel_max             =   1.2659734201249E+00
(PID.TID 0000.0001) %MON dynstat_uvel_min             =  -9.0699452652067E-01
(PID.TID 0000.0001) %MON dynstat_uvel_mean            =   1.0918039875272E-03
(PID.TID 0000.0001) %MON dynstat_uvel_sd              =   5.2333178452780E-02
(PID.TID 0000.0001) %MON dynstat_uvel_del2            =   5.5357653091756E-07
(PID.TID 0000.0001) %MON dynstat_vvel_max             =   2.7285896357225E+00
(PID.TID 0000.0001) %MON dynstat_vvel_min             =  -9.1439922329468E-01
(PID.TID 0000.0001) %MON dynstat_vvel_mean            =  -4.9024528394818E-03
(PID.TID 0000.0001) %MON dynstat_vvel_sd              =   4.9495708548798E-02
(PID.TID 0000.0001) %MON dynstat_vvel_del2            =   5.0731073543418E-07
(PID.TID 0000.0001) %MON dynstat_wvel_max             =   3.9572471923730E-02
(PID.TID 0000.0001) %MON dynstat_wvel_min             =  -3.3068545047171E-02
(PID.TID 0000.0001) %MON dynstat_wvel_mean            =  -1.9261330028615E-05
(PID.TID 0000.0001) %MON dynstat_wvel_sd              =   6.1182543259868E-04
(PID.TID 0000.0001) %MON dynstat_wvel_del2            =   7.0441225555016E-08
(PID.TID 0000.0001) %MON dynstat_theta_max            =   2.6145675384139E+01
(PID.TID 0000.0001) %MON dynstat_theta_min            =   1.4688656783419E+00
(PID.TID 0000.0001) %MON dynstat_theta_mean           =   5.5099199694685E+00
(PID.TID 0000.0001) %MON dynstat_theta_sd             =   4.7733379172546E+00
(PID.TID 0000.0001) %MON dynstat_theta_del2           =   4.0349419627571E-06
(PID.TID 0000.0001) %MON dynstat_salt_max             =   3.9139005790703E+01
(PID.TID 0000.0001) %MON dynstat_salt_min             =   3.3106553966890E+01
(PID.TID 0000.0001) %MON dynstat_salt_mean            =   3.5173367491128E+01
(PID.TID 0000.0001) %MON dynstat_salt_sd              =   3.7891712380933E-01
(PID.TID 0000.0001) %MON dynstat_salt_del2            =   5.3140723556993E-07
(PID.TID 0000.0001) %MON dynstat_sst_max              =   2.6139926211544E+01
(PID.TID 0000.0001) %MON dynstat_sst_min              =   3.8887662279858E+00
(PID.TID 0000.0001) %MON dynstat_sst_mean             =   1.9636105909486E+01
(PID.TID 0000.0001) %MON dynstat_sst_sd               =   3.6385577367866E+00
(PID.TID 0000.0001) %MON dynstat_sst_del2             =   1.9363599871016E-05
(PID.TID 0000.0001) %MON dynstat_sss_max              =   3.7336334735781E+01
(PID.TID 0000.0001) %MON dynstat_sss_min              =   3.3106553966890E+01
(PID.TID 0000.0001) %MON dynstat_sss_mean             =   3.5868469098754E+01
(PID.TID 0000.0001) %MON dynstat_sss_sd               =   4.8715029939322E-01
(PID.TID 0000.0001) %MON dynstat_sss_del2             =   4.9046989518625E-06
(PID.TID 0000.0001) %MON forcing_qnet_max             =   1.1688065914924E+03
(PID.TID 0000.0001) %MON forcing_qnet_min             =  -3.2697791660186E+02
(PID.TID 0000.0001) %MON forcing_qnet_mean            =   2.2086742626695E+02
(PID.TID 0000.0001) %MON forcing_qnet_sd              =   1.5071207264312E+02
(PID.TID 0000.0001) %MON forcing_qnet_del2            =   1.5972489763710E-03
(PID.TID 0000.0001) %MON forcing_qsw_max              =   0.0000000000000E+00
(PID.TID 0000.0001) %MON forcing_qsw_min              =  -9.8469198304486E+00
(PID.TID 0000.0001) %MON forcing_qsw_mean             =  -3.1223968963458E-01
(PID.TID 0000.0001) %MON forcing_qsw_sd               =   1.0116317604492E+00
(PID.TID 0000.0001) %MON forcing_qsw_del2             =   3.4955296175418E-06
(PID.TID 0000.0001) %MON forcing_empmr_max            =   2.4657293234372E-04
(PID.TID 0000.0001) %MON forcing_empmr_min            =  -9.5747942652789E-04
(PID.TID 0000.0001) %MON forcing_empmr_mean           =   1.5163645511225E-05
(PID.TID 0000.0001) %MON forcing_empmr_sd             =   1.1531815863681E-04
(PID.TID 0000.0001) %MON forcing_empmr_del2           =   9.4462162701104E-10
(PID.TID 0000.0001) %MON forcing_fu_max               =   1.0885115804426E+00
(PID.TID 0000.0001) %MON forcing_fu_min               =  -3.4049826830259E-01
(PID.TID 0000.0001) %MON forcing_fu_mean              =   7.0406466099789E-02
(PID.TID 0000.0001) %MON forcing_fu_sd                =   1.5996893357781E-01
(PID.TID 0000.0001) %MON forcing_fu_del2              =   2.3564521630920E-07
(PID.TID 0000.0001) %MON forcing_fv_max               =   4.2596957044273E-01
(PID.TID 0000.0001) %MON forcing_fv_min               =  -4.5091793437517E-01
(PID.TID 0000.0001) %MON forcing_fv_mean              =   1.9705453077697E-02
(PID.TID 0000.0001) %MON forcing_fv_sd                =   1.0764309006830E-01
(PID.TID 0000.0001) %MON forcing_fv_del2              =   1.7969406724122E-07
(PID.TID 0000.0001) %MON trAdv_CFL_u_max              =   7.6807573200790E-02
(PID.TID 0000.0001) %MON trAdv_CFL_v_max              =   1.7240159529799E-01
(PID.TID 0000.0001) %MON trAdv_CFL_w_max              =   5.3243883194908E-01
(PID.TID 0000.0001) %MON advcfl_uvel_max              =   7.6807572154986E-02
(PID.TID 0000.0001) %MON advcfl_vvel_max              =   1.7245175750502E-01
(PID.TID 0000.0001) %MON advcfl_wvel_max              =   5.2356485141659E-01
(PID.TID 0000.0001) %MON advcfl_W_hf_max              =   5.3243883194908E-01
(PID.TID 0000.0001) %MON pe_b_mean                    =  -1.7248942289120E-03
(PID.TID 0000.0001) %MON ke_max                       =   3.4061882885837E+00
(PID.TID 0000.0001) %MON ke_mean                      =   2.5876918050722E-03
(PID.TID 0000.0001) %MON ke_vol                       =   4.5818637279720E+16
(PID.TID 0000.0001) %MON vort_r_min                   =  -5.2803343058714E-04
(PID.TID 0000.0001) %MON vort_r_max                   =   7.9500643550126E-04
(PID.TID 0000.0001) %MON vort_a_mean                  =   8.2147619744357E-05
(PID.TID 0000.0001) %MON vort_a_sd                    =   1.0158570258430E-05
(PID.TID 0000.0001) %MON vort_p_mean                  =   8.4848840943524E-05
(PID.TID 0000.0001) %MON vort_p_sd                    =   3.4989973144691E-05
(PID.TID 0000.0001) %MON surfExpan_theta_mean         =  -5.1350980504963E-04
(PID.TID 0000.0001) %MON surfExpan_salt_mean          =  -1.1938916592920E-03
(PID.TID 0000.0001) // =======================================================
(PID.TID 0000.0001) // End MONITOR dynamic field statistics
(PID.TID 0000.0001) // =======================================================
(PID.TID 0000.0001) // =======================================================
(PID.TID 0000.0001) // Begin OBCS MONITOR field statistics
(PID.TID 0000.0001) // =======================================================
(PID.TID 0000.0001) %MON obc_N_vVel_max               =   6.9386348641532E-01
(PID.TID 0000.0001) %MON obc_N_vVel_min               =  -3.2526955108089E-01
(PID.TID 0000.0001) %MON obc_N_vVel_mean              =   1.3207329893574E-02
(PID.TID 0000.0001) %MON obc_N_vVel_sd                =   6.4494935757103E-02
(PID.TID 0000.0001) %MON obc_N_vVel_Int               =   1.8906404295287E+08
(PID.TID 0000.0001) %MON obc_S_vVel_max               =   2.7285896357225E+00
(PID.TID 0000.0001) %MON obc_S_vVel_min               =  -2.6325457576441E-01
(PID.TID 0000.0001) %MON obc_S_vVel_mean              =  -6.2604081018520E-03
(PID.TID 0000.0001) %MON obc_S_vVel_sd                =   3.6578004715070E-02
(PID.TID 0000.0001) %MON obc_S_vVel_Int               =  -1.9058497575623E+08
(PID.TID 0000.0001) %MON obc_N_theta_max              =   1.6389539512358E+01
(PID.TID 0000.0001) %MON obc_N_theta_min              =   1.8895914629663E+00
(PID.TID 0000.0001) %MON obc_N_theta_mean             =   5.1588697396382E+00
(PID.TID 0000.0001) %MON obc_N_theta_sd               =   3.4825945703428E+00
(PID.TID 0000.0001) %MON obc_S_theta_max              =   2.5543400077115E+01
(PID.TID 0000.0001) %MON obc_S_theta_min              =   1.4633015851955E+00
(PID.TID 0000.0001) %MON obc_S_theta_mean             =   5.4595457048426E+00
(PID.TID 0000.0001) %MON obc_S_theta_sd               =   5.3558789690521E+00
(PID.TID 0000.0001) %MON obc_N_salt_max               =   3.5910861522510E+01
(PID.TID 0000.0001) %MON obc_N_salt_min               =   3.3295096609545E+01
(PID.TID 0000.0001) %MON obc_N_salt_mean              =   3.5114559876550E+01
(PID.TID 0000.0001) %MON obc_N_salt_sd                =   3.0984754112533E-01
(PID.TID 0000.0001) %MON obc_S_salt_max               =   3.7318243364860E+01
(PID.TID 0000.0001) %MON obc_S_salt_min               =   3.4844695097122E+01
(PID.TID 0000.0001) %MON obc_S_salt_mean              =   3.5168371860084E+01
(PID.TID 0000.0001) %MON obc_S_salt_sd                =   4.5716584210290E-01
(PID.TID 0000.0001) // =======================================================
(PID.TID 0000.0001) // End OBCS MONITOR field statistics
(PID.TID 0000.0001) // =======================================================
 Computing Diagnostic #     23  ETAN         Counter:      15   Parms: SM      M1      
 Computing Diagnostic #     80  oceTAUX      Counter:      15   Parms: UU      U1      
           Vector  Mate for  oceTAUX      Diagnostic #     81  oceTAUY  exists 
 Computing Diagnostic #     81  oceTAUY      Counter:      15   Parms: VV      U1      
           Vector  Mate for  oceTAUY      Diagnostic #     80  oceTAUX  exists 
 Computing Diagnostic #    185  EXFuwind     Counter:      15   Parms: UM      U1      
 Computing Diagnostic #    186  EXFvwind     Counter:      15   Parms: VM      U1      
 Computing Diagnostic #     26  THETA        Counter:      15   Parms: SMR     MR      
 Computing Diagnostic #     27  SALT         Counter:      15   Parms: SMR     MR      
 Computing Diagnostic #     30  UVEL         Counter:      15   Parms: UUR     MR      
           Vector  Mate for  UVEL         Diagnostic #     31  VVEL     exists 
 Computing Diagnostic #     31  VVEL         Counter:      15   Parms: VVR     MR      
           Vector  Mate for  VVEL         Diagnostic #     30  UVEL     exists 
 Computing Diagnostic #     32  WVEL         Counter:      15   Parms: WM      LR      
 Computing Diagnostic #     36  UVELSQ       Counter:      15   Parms: UURP    MR      
           Vector  Mate for  UVELSQ       Diagnostic #     37  VVELSQ   exists 
 Computing Diagnostic #     37  VVELSQ       Counter:      15   Parms: VVRP    MR      
           Vector  Mate for  VVELSQ       Diagnostic #     36  UVELSQ   exists 
 Computing Diagnostic #     52  WTHMASS      Counter:      15   Parms: WM      LR      
 Computing Diagnostic #     55  WSLTMASS     Counter:      15   Parms: WM      LR      
(PID.TID 0000.0001) %CHECKPOINT        15 ckptA
(PID.TID 0000.0001)   Seconds in section "ALL                    [THE_MODEL_MAIN]":
(PID.TID 0000.0001)           User time:   41.4515980780125
(PID.TID 0000.0001)         System time:  0.000000000000000E+000
(PID.TID 0000.0001)     Wall clock time:   65.0872859954834
(PID.TID 0000.0001)          No. starts:           1
(PID.TID 0000.0001)           No. stops:           1
(PID.TID 0000.0001)   Seconds in section "INITIALISE_FIXED       [THE_MODEL_MAIN]":
(PID.TID 0000.0001)           User time:   2.85147297382355
(PID.TID 0000.0001)         System time:  0.000000000000000E+000
(PID.TID 0000.0001)     Wall clock time:   6.81369495391846
(PID.TID 0000.0001)          No. starts:           1
(PID.TID 0000.0001)           No. stops:           1
(PID.TID 0000.0001)   Seconds in section "THE_MAIN_LOOP          [THE_MODEL_MAIN]":
(PID.TID 0000.0001)           User time:   38.6001002788544
(PID.TID 0000.0001)         System time:  0.000000000000000E+000
(PID.TID 0000.0001)     Wall clock time:   58.2735710144043
(PID.TID 0000.0001)          No. starts:           1
(PID.TID 0000.0001)           No. stops:           1
(PID.TID 0000.0001)   Seconds in section "INITIALISE_VARIA    [THE_MAIN_LOOP]":
(PID.TID 0000.0001)           User time:   1.19698476791382
(PID.TID 0000.0001)         System time:  0.000000000000000E+000
(PID.TID 0000.0001)     Wall clock time:   9.80656409263611
(PID.TID 0000.0001)          No. starts:           1
(PID.TID 0000.0001)           No. stops:           1
(PID.TID 0000.0001)   Seconds in section "MAIN LOOP           [THE_MAIN_LOOP]":
(PID.TID 0000.0001)           User time:   37.4030995368958
(PID.TID 0000.0001)         System time:  0.000000000000000E+000
(PID.TID 0000.0001)     Wall clock time:   48.4669919013977
(PID.TID 0000.0001)          No. starts:           1
(PID.TID 0000.0001)           No. stops:           1
(PID.TID 0000.0001)   Seconds in section "MAIN_DO_LOOP        [THE_MAIN_LOOP]":
(PID.TID 0000.0001)           User time:   37.4029560089111
(PID.TID 0000.0001)         System time:  0.000000000000000E+000
(PID.TID 0000.0001)     Wall clock time:   48.4668226242065
(PID.TID 0000.0001)          No. starts:          15
(PID.TID 0000.0001)           No. stops:          15
(PID.TID 0000.0001)   Seconds in section "FORWARD_STEP        [MAIN_DO_LOOP]":
(PID.TID 0000.0001)           User time:   37.4027166366577
(PID.TID 0000.0001)         System time:  0.000000000000000E+000
(PID.TID 0000.0001)     Wall clock time:   48.4665954113007
(PID.TID 0000.0001)          No. starts:          15
(PID.TID 0000.0001)           No. stops:          15
(PID.TID 0000.0001)   Seconds in section "DO_STATEVARS_DIAGS  [FORWARD_STEP]":
(PID.TID 0000.0001)           User time:  0.752015113830566
(PID.TID 0000.0001)         System time:  0.000000000000000E+000
(PID.TID 0000.0001)     Wall clock time:  0.756126403808594
(PID.TID 0000.0001)          No. starts:          45
(PID.TID 0000.0001)           No. stops:          45
(PID.TID 0000.0001)   Seconds in section "LOAD_FIELDS_DRIVER  [FORWARD_STEP]":
(PID.TID 0000.0001)           User time:  0.175836086273193
(PID.TID 0000.0001)         System time:  0.000000000000000E+000
(PID.TID 0000.0001)     Wall clock time:  0.774993419647217
(PID.TID 0000.0001)          No. starts:          15
(PID.TID 0000.0001)           No. stops:          15
(PID.TID 0000.0001)   Seconds in section "EXF_GETFORCING     [LOAD_FLDS_DRIVER]":
(PID.TID 0000.0001)           User time:  0.175478935241699
(PID.TID 0000.0001)         System time:  0.000000000000000E+000
(PID.TID 0000.0001)     Wall clock time:  0.774621725082397
(PID.TID 0000.0001)          No. starts:          15
(PID.TID 0000.0001)           No. stops:          15
(PID.TID 0000.0001)   Seconds in section "EXTERNAL_FLDS_LOAD [LOAD_FLDS_DRIVER]":
(PID.TID 0000.0001)           User time:  8.440017700195312E-005
(PID.TID 0000.0001)         System time:  0.000000000000000E+000
(PID.TID 0000.0001)     Wall clock time:  1.046657562255859E-004
(PID.TID 0000.0001)          No. starts:          15
(PID.TID 0000.0001)           No. stops:          15
(PID.TID 0000.0001)   Seconds in section "DO_ATMOSPHERIC_PHYS [FORWARD_STEP]":
(PID.TID 0000.0001)           User time:  7.963180541992188E-005
(PID.TID 0000.0001)         System time:  0.000000000000000E+000
(PID.TID 0000.0001)     Wall clock time:  7.987022399902344E-005
(PID.TID 0000.0001)          No. starts:          15
(PID.TID 0000.0001)           No. stops:          15
(PID.TID 0000.0001)   Seconds in section "DO_OCEANIC_PHYS     [FORWARD_STEP]":
(PID.TID 0000.0001)           User time:   4.00079822540283
(PID.TID 0000.0001)         System time:  0.000000000000000E+000
(PID.TID 0000.0001)     Wall clock time:   4.08424949645996
(PID.TID 0000.0001)          No. starts:          15
(PID.TID 0000.0001)           No. stops:          15
(PID.TID 0000.0001)   Seconds in section "KPP_CALC [DO_OCEANIC_PHYS]":
(PID.TID 0000.0001)           User time:   3.43767786026001
(PID.TID 0000.0001)         System time:  0.000000000000000E+000
(PID.TID 0000.0001)     Wall clock time:   3.50873494148254
(PID.TID 0000.0001)          No. starts:          15
(PID.TID 0000.0001)           No. stops:          15
(PID.TID 0000.0001)   Seconds in section "DYNAMICS            [FORWARD_STEP]":
(PID.TID 0000.0001)           User time:   9.43481016159058
(PID.TID 0000.0001)         System time:  0.000000000000000E+000
(PID.TID 0000.0001)     Wall clock time:   9.46747112274170
(PID.TID 0000.0001)          No. starts:          15
(PID.TID 0000.0001)           No. stops:          15
(PID.TID 0000.0001)   Seconds in section "UPDATE_SURF_DR      [FORWARD_STEP]":
(PID.TID 0000.0001)           User time:  6.757783889770508E-002
(PID.TID 0000.0001)         System time:  0.000000000000000E+000
(PID.TID 0000.0001)     Wall clock time:  6.789541244506836E-002
(PID.TID 0000.0001)          No. starts:          15
(PID.TID 0000.0001)           No. stops:          15
(PID.TID 0000.0001)   Seconds in section "SOLVE_FOR_PRESSURE  [FORWARD_STEP]":
(PID.TID 0000.0001)           User time:   1.44685173034668
(PID.TID 0000.0001)         System time:  0.000000000000000E+000
(PID.TID 0000.0001)     Wall clock time:   1.44709396362305
(PID.TID 0000.0001)          No. starts:          15
(PID.TID 0000.0001)           No. stops:          15
(PID.TID 0000.0001)   Seconds in section "MOM_CORRECTION_STEP [FORWARD_STEP]":
(PID.TID 0000.0001)           User time:  0.200085163116455
(PID.TID 0000.0001)         System time:  0.000000000000000E+000
(PID.TID 0000.0001)     Wall clock time:  0.200185775756836
(PID.TID 0000.0001)          No. starts:          15
(PID.TID 0000.0001)           No. stops:          15
(PID.TID 0000.0001)   Seconds in section "INTEGR_CONTINUITY   [FORWARD_STEP]":
(PID.TID 0000.0001)           User time:  0.266214370727539
(PID.TID 0000.0001)         System time:  0.000000000000000E+000
(PID.TID 0000.0001)     Wall clock time:  0.266425371170044
(PID.TID 0000.0001)          No. starts:          15
(PID.TID 0000.0001)           No. stops:          15
(PID.TID 0000.0001)   Seconds in section "BLOCKING_EXCHANGES  [FORWARD_STEP]":
(PID.TID 0000.0001)           User time:  0.882017612457275
(PID.TID 0000.0001)         System time:  0.000000000000000E+000
(PID.TID 0000.0001)     Wall clock time:  0.882213592529297
(PID.TID 0000.0001)          No. starts:          30
(PID.TID 0000.0001)           No. stops:          30
(PID.TID 0000.0001)   Seconds in section "THERMODYNAMICS      [FORWARD_STEP]":
(PID.TID 0000.0001)           User time:   6.53463411331177
(PID.TID 0000.0001)         System time:  0.000000000000000E+000
(PID.TID 0000.0001)     Wall clock time:   6.59085774421692
(PID.TID 0000.0001)          No. starts:          15
(PID.TID 0000.0001)           No. stops:          15
(PID.TID 0000.0001)   Seconds in section "TRC_CORRECTION_STEP [FORWARD_STEP]":
(PID.TID 0000.0001)           User time:  7.724761962890625E-005
(PID.TID 0000.0001)         System time:  0.000000000000000E+000
(PID.TID 0000.0001)     Wall clock time:  8.296966552734375E-005
(PID.TID 0000.0001)          No. starts:          15
(PID.TID 0000.0001)           No. stops:          15
(PID.TID 0000.0001)   Seconds in section "MONITOR             [FORWARD_STEP]":
(PID.TID 0000.0001)           User time:   1.07018280029297
(PID.TID 0000.0001)         System time:  0.000000000000000E+000
(PID.TID 0000.0001)     Wall clock time:   1.07049250602722
(PID.TID 0000.0001)          No. starts:          15
(PID.TID 0000.0001)           No. stops:          15
(PID.TID 0000.0001)   Seconds in section "DO_THE_MODEL_IO     [FORWARD_STEP]":
(PID.TID 0000.0001)           User time:   6.95658874511719
(PID.TID 0000.0001)         System time:  0.000000000000000E+000
(PID.TID 0000.0001)     Wall clock time:   11.3946030139923
(PID.TID 0000.0001)          No. starts:          15
(PID.TID 0000.0001)           No. stops:          15
(PID.TID 0000.0001)   Seconds in section "DO_WRITE_PICKUP     [FORWARD_STEP]":
(PID.TID 0000.0001)           User time:   5.61270666122437
(PID.TID 0000.0001)         System time:  0.000000000000000E+000
(PID.TID 0000.0001)     Wall clock time:   11.4619252681732
(PID.TID 0000.0001)          No. starts:          15
(PID.TID 0000.0001)           No. stops:          15
(PID.TID 0000.0001) // ======================================================
(PID.TID 0000.0001) // Tile <-> Tile communication statistics
(PID.TID 0000.0001) // ======================================================
(PID.TID 0000.0001) // o Tile number: 000001
(PID.TID 0000.0001) //         No. X exchanges =              0
(PID.TID 0000.0001) //            Max. X spins =              0
(PID.TID 0000.0001) //            Min. X spins =     1000000000
(PID.TID 0000.0001) //          Total. X spins =              0
(PID.TID 0000.0001) //            Avg. X spins =       0.00E+00
(PID.TID 0000.0001) //         No. Y exchanges =              0
(PID.TID 0000.0001) //            Max. Y spins =              0
(PID.TID 0000.0001) //            Min. Y spins =     1000000000
(PID.TID 0000.0001) //          Total. Y spins =              0
(PID.TID 0000.0001) //            Avg. Y spins =       0.00E+00
(PID.TID 0000.0001) // o Thread number: 000001
(PID.TID 0000.0001) //            No. barriers =          72282
(PID.TID 0000.0001) //      Max. barrier spins =              1
(PID.TID 0000.0001) //      Min. barrier spins =              1
(PID.TID 0000.0001) //     Total barrier spins =          72282
(PID.TID 0000.0001) //      Avg. barrier spins =       1.00E+00
PROGRAM MAIN: Execution ended Normally
