(PID.TID 0000.0001) 
(PID.TID 0000.0001) // ======================================================
(PID.TID 0000.0001) //                      MITgcm UV
(PID.TID 0000.0001) //                      =========
(PID.TID 0000.0001) // ======================================================
(PID.TID 0000.0001) // execution environment starting up...
(PID.TID 0000.0001) 
(PID.TID 0000.0001) // MITgcmUV version:  checkpoint67c
(PID.TID 0000.0001) // Build user:        dmenemen
(PID.TID 0000.0001) // Build host:        r3i3n8
(PID.TID 0000.0001) // Build date:        Fri Jul 20 07:00:21 PDT 2018
(PID.TID 0000.0001) 
(PID.TID 0000.0001) // =======================================================
(PID.TID 0000.0001) // Execution Environment parameter file "eedata"
(PID.TID 0000.0001) // =======================================================
(PID.TID 0000.0001) ># Example "eedata" file
(PID.TID 0000.0001) ># Lines beginning "#" are comments
(PID.TID 0000.0001) ># nTx - No. threads per process in X
(PID.TID 0000.0001) ># nTy - No. threads per process in Y
(PID.TID 0000.0001) > &EEPARMS
(PID.TID 0000.0001) > useCubedSphereExchange=.TRUE.,
(PID.TID 0000.0001) > nTx=1,
(PID.TID 0000.0001) > nTy=1,
(PID.TID 0000.0001) ># debugMode=.TRUE.,
(PID.TID 0000.0001) > /
(PID.TID 0000.0001) ># Note: Some systems use & as the
(PID.TID 0000.0001) ># namelist terminator. Other systems
(PID.TID 0000.0001) ># use a / character (as shown here).
(PID.TID 0000.0001) 
(PID.TID 0000.0001) // =======================================================
(PID.TID 0000.0001) // Computational Grid Specification ( see files "SIZE.h" )
(PID.TID 0000.0001) //                                  ( and "eedata"       )
(PID.TID 0000.0001) // =======================================================
(PID.TID 0000.0001)      nPx =  118 ; /* No. processes in X */
(PID.TID 0000.0001)      nPy =    1 ; /* No. processes in Y */
(PID.TID 0000.0001)      nSx =    1 ; /* No. tiles in X per process */
(PID.TID 0000.0001)      nSy =    1 ; /* No. tiles in Y per process */
(PID.TID 0000.0001)      sNx =   90 ; /* Tile size in X */
(PID.TID 0000.0001)      sNy =   90 ; /* Tile size in Y */
(PID.TID 0000.0001)      OLx =    8 ; /* Tile overlap distance in X */
(PID.TID 0000.0001)      OLy =    8 ; /* Tile overlap distance in Y */
(PID.TID 0000.0001)      nTx =    1 ; /* No. threads in X per process */
(PID.TID 0000.0001)      nTy =    1 ; /* No. threads in Y per process */
(PID.TID 0000.0001)       Nr =  100 ; /* No. levels in the vertical   */
(PID.TID 0000.0001)       Nx =10620 ; /* Total domain size in X ( = nPx*nSx*sNx ) */
(PID.TID 0000.0001)       Ny =   90 ; /* Total domain size in Y ( = nPy*nSy*sNy ) */
(PID.TID 0000.0001)   nTiles =    1 ; /* Total no. tiles per process ( = nSx*nSy ) */
(PID.TID 0000.0001)   nProcs =  118 ; /* Total no. processes ( = nPx*nPy ) */
(PID.TID 0000.0001) nThreads =    1 ; /* Total no. threads per process ( = nTx*nTy ) */
(PID.TID 0000.0001) usingMPI =    T ; /* Flag used to control whether MPI is in use */
(PID.TID 0000.0001)                   /*  note: To execute a program with MPI calls */
(PID.TID 0000.0001)                   /*  it must be launched appropriately e.g     */
(PID.TID 0000.0001)                   /*  "mpirun -np 64 ......"                    */
(PID.TID 0000.0001) useCoupler=    F ;/* Flag used to control communications with   */
(PID.TID 0000.0001)                   /*  other model components, through a coupler */
(PID.TID 0000.0001) debugMode =    F ; /* print debug msg. (sequence of S/R calls)  */
(PID.TID 0000.0001) printMapIncludesZeros=    F ; /* print zeros in Std.Output maps */
(PID.TID 0000.0001) maxLengthPrt1D=   65 /* maxLength of 1D array printed to StdOut */
(PID.TID 0000.0001) 
(PID.TID 0000.0001) ======= Starting MPI parallel Run =========
(PID.TID 0000.0001)  My Processor Name (len:  6 ) = r3i3n8
(PID.TID 0000.0001)  Located at (  0,  0) on processor grid (0:117,0:  0)
(PID.TID 0000.0001)  Origin at  (     1,     1) on global grid (1: 10620,1:    90)
(PID.TID 0000.0001)  North neighbor = processor 0000
(PID.TID 0000.0001)  South neighbor = processor 0000
(PID.TID 0000.0001)   East neighbor = processor 0001
(PID.TID 0000.0001)   West neighbor = processor 0117
(PID.TID 0000.0001) // ======================================================
(PID.TID 0000.0001) // Mapping of tiles to threads
(PID.TID 0000.0001) // ======================================================
(PID.TID 0000.0001) // -o- Thread   1, tiles (   1:   1,   1:   1)
(PID.TID 0000.0001) 
(PID.TID 0000.0001) W2_READPARMS: opening data.exch2
(PID.TID 0000.0001)  OPEN_COPY_DATA_FILE: opening file data.exch2
(PID.TID 0000.0001) // =======================================================
(PID.TID 0000.0001) // Parameter file "data.exch2"
(PID.TID 0000.0001) // =======================================================
(PID.TID 0000.0001) ># EXCH2 Package: Wrapper-2 User Choice
(PID.TID 0000.0001) >#--------------------
(PID.TID 0000.0001) >#  preDefTopol   :: pre-defined Topology selector:
(PID.TID 0000.0001) >#                :: = 0 : topology defined from processing "data.exch2";
(PID.TID 0000.0001) >#                :: = 1 : simple, single facet topology;
(PID.TID 0000.0001) >#                :: = 2 : customized topology (w2_set_myown_facets)
(PID.TID 0000.0001) >#                :: = 3 : 6-facet Cube (3 face-dims: nRed, nGreen, nBlue).
(PID.TID 0000.0001) >#  dimsFacets    :: facet pair of dimensions (n1x,n1y, n2x,n2y ...)
(PID.TID 0000.0001) >#  facetEdgeLink :: Face-Edge connectivity map:
(PID.TID 0000.0001) >#    facetEdgeLink(i,j)=XX.1 : face(j)-edge(i) (i=1,2,3,4 <==> N,S,E,W)
(PID.TID 0000.0001) >#    is connected to Northern edge of face "XX" ; similarly,
(PID.TID 0000.0001) >#    = XX.2 : to Southern.E, XX.3 = Eastern.E, XX.4 = Western.E of face "XX"
(PID.TID 0000.0001) >#  blankList     :: List of "blank" tiles
(PID.TID 0000.0001) >#  W2_mapIO      :: global map IO selector (-1 = old type ; 0 = 1 long line in X
(PID.TID 0000.0001) >#                :: 1 = compact, mostly in Y dir)
(PID.TID 0000.0001) >#  W2_printMsg   :: option for information messages printing
(PID.TID 0000.0001) >#                :: <0 : write to log file ; =0 : minimum print ;
(PID.TID 0000.0001) >#                :: =1 : no duplicated print ; =2 : all processes do print
(PID.TID 0000.0001) >#--------------------
(PID.TID 0000.0001) > &W2_EXCH2_PARM01
(PID.TID 0000.0001) >  W2_printMsg= 0,
(PID.TID 0000.0001) >  W2_mapIO   = 1,
(PID.TID 0000.0001) >#
(PID.TID 0000.0001) >#-- 5 facets llc_270 topology (drop facet 6 and its connection):
(PID.TID 0000.0001) >  preDefTopol = 0,
(PID.TID 0000.0001) >  dimsFacets = 1080, 540, 0, 0, 0, 0, 0, 0, 540, 1080, 0, 0,
(PID.TID 0000.0001) >  facetEdgeLink(1,1)= 0. , 0. , 0. , 5.1,
(PID.TID 0000.0001) >  facetEdgeLink(1,2)= 0. , 0. , 0. , 0. ,
(PID.TID 0000.0001) >  facetEdgeLink(1,3)= 0. , 0. , 0. , 0. ,
(PID.TID 0000.0001) >  facetEdgeLink(1,4)= 0. , 0. , 0. , 0. ,
(PID.TID 0000.0001) >  facetEdgeLink(1,5)= 1.4, 0. , 0. , 0. ,
(PID.TID 0000.0001) >  blankList = 9, 10, 11, 12, 21, 22, 23, 24, 34, 35, 36, 46, 47, 48, 57, 58, 59, 60, 69, 70, 71, 72, 73, 74, 75, 79,
(PID.TID 0000.0001) > &
(PID.TID 0000.0001) 
(PID.TID 0000.0001) W2_READPARMS: finished reading data.exch2
(PID.TID 0000.0001) W2_useE2ioLayOut=    T ;/* T: use Exch2 glob IO map; F: use model default */
(PID.TID 0000.0001) W2_mapIO        =   1 ; /* select option for Exch2 global-IO map */
(PID.TID 0000.0001) W2_printMsg     =   0 ; /* select option for printing information */
(PID.TID 0000.0001) ===== Start setting W2 TOPOLOGY:
(PID.TID 0000.0001) W2_E2SETUP: number of Active Tiles =     118
(PID.TID 0000.0001) W2_E2SETUP: number of Blank Tiles  =      26
(PID.TID 0000.0001) W2_E2SETUP: Total number of Tiles  =     144
(PID.TID 0000.0001) W2_SET_GEN_FACETS: preDefTopol=  0 selected
(PID.TID 0000.0001) W2_SET_GEN_FACETS: Number of facets =  5 (inferred from "dimsFacets")
(PID.TID 0000.0001) W2_E2SETUP: Total number of Facets =       5
(PID.TID 0000.0001) W2_SET_F2F_INDEX: index matrix for connected Facet-Edges:
(PID.TID 0000.0001) ** WARNING ** N.Edge of facet #  1 disconnected (facet_link=  0.00)
(PID.TID 0000.0001) ** WARNING ** S.Edge of facet #  1 disconnected (facet_link=  0.00)
(PID.TID 0000.0001) ** WARNING ** E.Edge of facet #  1 disconnected (facet_link=  0.00)
(PID.TID 0000.0001) ** WARNING ** N.Edge of facet #  2 disconnected (facet_link=  0.00)
(PID.TID 0000.0001) ** WARNING ** S.Edge of facet #  2 disconnected (facet_link=  0.00)
(PID.TID 0000.0001) ** WARNING ** E.Edge of facet #  2 disconnected (facet_link=  0.00)
(PID.TID 0000.0001) ** WARNING ** W.Edge of facet #  2 disconnected (facet_link=  0.00)
(PID.TID 0000.0001) ** WARNING ** N.Edge of facet #  3 disconnected (facet_link=  0.00)
(PID.TID 0000.0001) ** WARNING ** S.Edge of facet #  3 disconnected (facet_link=  0.00)
(PID.TID 0000.0001) ** WARNING ** E.Edge of facet #  3 disconnected (facet_link=  0.00)
(PID.TID 0000.0001) ** WARNING ** W.Edge of facet #  3 disconnected (facet_link=  0.00)
(PID.TID 0000.0001) ** WARNING ** N.Edge of facet #  4 disconnected (facet_link=  0.00)
(PID.TID 0000.0001) ** WARNING ** S.Edge of facet #  4 disconnected (facet_link=  0.00)
(PID.TID 0000.0001) ** WARNING ** E.Edge of facet #  4 disconnected (facet_link=  0.00)
(PID.TID 0000.0001) ** WARNING ** W.Edge of facet #  4 disconnected (facet_link=  0.00)
(PID.TID 0000.0001) ** WARNING ** S.Edge of facet #  5 disconnected (facet_link=  0.00)
(PID.TID 0000.0001) ** WARNING ** E.Edge of facet #  5 disconnected (facet_link=  0.00)
(PID.TID 0000.0001) ** WARNING ** W.Edge of facet #  5 disconnected (facet_link=  0.00)
(PID.TID 0000.0001) W2_SET_MAP_TILES: tile mapping within facet and global Map:
(PID.TID 0000.0001)  W2_mapIO =  540 (=    6*sNx)
(PID.TID 0000.0001)  Global Map (IO): X-size=     540 , Y-size=    2160
(PID.TID 0000.0001) W2_SET_MAP_TILES: tile offset within facet and global Map:
- facet  1 : X-size=  1080 , Y-size=   540 ;   72 tiles (Tx,Ty=  12,   6)
- facet  2 : X-size=     0 , Y-size=     0 ;    0 tiles (Tx,Ty=   0,   0)
- facet  3 : X-size=     0 , Y-size=     0 ;    0 tiles (Tx,Ty=   0,   0)
- facet  4 : X-size=     0 , Y-size=     0 ;    0 tiles (Tx,Ty=   0,   0)
- facet  5 : X-size=   540 , Y-size=  1080 ;   72 tiles (Tx,Ty=   6,  12)
(PID.TID 0000.0001) W2_SET_MAP_CUMSUM: setting Facet Matrix for CUMUL-SUM
(PID.TID 0000.0001) W2_SET_MAP_CUMSUM: set    1 /   2 active facets (pass,type=   1, 3)
 Facet Matrix for CUMUL-SUM (nFacets=   5, nActive=   2 ):
- facet  1 :  0  0 ,  0  0 ,  0  0 ,  0  0 ,  0  0 ,
- facet  2 :  0  0 ,  0  0 ,  0  0 ,  0  0 ,  0  0 ,
- facet  3 :  0  0 ,  0  0 ,  0  0 ,  0  0 ,  0  0 ,
- facet  4 :  0  0 ,  0  0 ,  0  0 ,  0  0 ,  0  0 ,
- facet  5 :  0  1 ,  0  0 ,  0  0 ,  0  0 ,  0 -1 ,
 missing-corner Tile for CUMUL-SUM (nTiles=   144 ): W2_tMC1=    61 , W2_tMC2=     0
(PID.TID 0000.0001) W2_SET_MAP_CUMSUM: done (skip Tile Matrix setting)
(PID.TID 0000.0001) W2_SET_TILE2TILES: tile neighbours and index connection:
(PID.TID 0000.0001) current Max.Nb.Neighbours (e.g., on tile   13 ) =  4
(PID.TID 0000.0001) ===== W2 TILE TOPOLOGY =====
(PID.TID 0000.0001)  TILE:     1 (bi,bj=   1   1 ), Nb of Neighbours =  3
(PID.TID 0000.0001)     NEIGHBOUR  1 = TILE   13 (n=  2) Comm = MSG (PROC=    9)
(PID.TID 0000.0001)     NEIGHBOUR  2 = TILE    2 (n=  3) Comm = MSG (PROC=    2)
(PID.TID 0000.0001)     NEIGHBOUR  3 = TILE  144 (n=  1) Comm = MSG (PROC=  118)
(PID.TID 0000.0001) =====       setting W2 TOPOLOGY: Done
(PID.TID 0000.0001) 
(PID.TID 0000.0001)  INI_PARMS: opening model parameter file "data"
(PID.TID 0000.0001)  OPEN_COPY_DATA_FILE: opening file data
(PID.TID 0000.0001) // =======================================================
(PID.TID 0000.0001) // Parameter file "data"
(PID.TID 0000.0001) // =======================================================
(PID.TID 0000.0001) >### Data file with primary model parameters -----------------------------------
(PID.TID 0000.0001) >#
(PID.TID 0000.0001) >### Continuous equation parameters --------------------------------------------
(PID.TID 0000.0001) > &PARM01
(PID.TID 0000.0001) >## Reference temperatures and salinities for every vertical level.
(PID.TID 0000.0001) > tRef =  18.89, 18.89, 18.89, 18.89, 18.89, 18.87, 18.85, 18.82,
(PID.TID 0000.0001) >         18.80, 18.73, 18.63, 18.49, 18.28, 18.08, 17.86, 17.63,
(PID.TID 0000.0001) >         17.40, 17.18, 16.95, 16.73, 16.52, 16.31, 16.10, 15.89,
(PID.TID 0000.0001) >         15.69, 15.49, 15.28, 15.08, 14.88, 14.67, 14.47, 14.25,
(PID.TID 0000.0001) >         14.03, 13.80, 13.55, 13.29, 13.01, 12.73, 12.42, 12.11,
(PID.TID 0000.0001) >         11.78, 11.43, 11.07, 10.70, 10.31,  9.93,  9.53,  9.11,
(PID.TID 0000.0001) >          8.71,  8.29,  7.89,  7.51,  7.13,  6.78,  6.44,  6.11,
(PID.TID 0000.0001) >          5.81,  5.51,  5.23,  4.97,  4.73,  4.51,  4.30,  4.11,
(PID.TID 0000.0001) >          3.94,  3.78,  3.63,  3.50,  3.38,  3.25,  3.14,  3.04,
(PID.TID 0000.0001) >          2.94,  2.83,  2.74,  2.64,  2.54,  2.45,  2.36,  2.27,
(PID.TID 0000.0001) >          2.19,  2.10,  2.03,  1.95,  1.86,  1.78,  1.70,  1.63,
(PID.TID 0000.0001) >          1.55,  1.48,  1.41,  1.34,  1.27,  1.20,  1.13,  1.06,
(PID.TID 0000.0001) >          1.00,  0.96,  0.93,  0.91,
(PID.TID 0000.0001) > sRef =  34.84, 34.84, 34.84, 34.84, 34.84, 34.84, 34.85, 34.85,
(PID.TID 0000.0001) >         34.85, 34.86, 34.87, 34.88, 34.90, 34.91, 34.93, 34.95,
(PID.TID 0000.0001) >         34.96, 34.98, 34.99, 35.00, 35.01, 35.02, 35.03, 35.04,
(PID.TID 0000.0001) >         35.05, 35.06, 35.07, 35.07, 35.07, 35.07, 35.07, 35.07,
(PID.TID 0000.0001) >         35.07, 35.06, 35.05, 35.04, 35.03, 35.02, 35.01, 34.99,
(PID.TID 0000.0001) >         34.97, 34.95, 34.92, 34.90, 34.87, 34.84, 34.81, 34.78,
(PID.TID 0000.0001) >         34.75, 34.72, 34.69, 34.67, 34.65, 34.62, 34.61, 34.60,
(PID.TID 0000.0001) >         34.59, 34.59, 34.58, 34.59, 34.59, 34.60, 34.60, 34.61,
(PID.TID 0000.0001) >         34.62, 34.63, 34.64, 34.65, 34.66, 34.67, 34.67, 34.68,
(PID.TID 0000.0001) >         34.69, 34.70, 34.71, 34.71, 34.72, 34.72, 34.73, 34.73,
(PID.TID 0000.0001) >         34.73, 34.74, 34.74, 34.74, 34.74, 34.75, 34.74, 34.74,
(PID.TID 0000.0001) >         34.74, 34.74, 34.74, 34.74, 34.74, 34.74, 34.73, 34.73,
(PID.TID 0000.0001) >         34.73, 34.73, 34.73, 34.73,
(PID.TID 0000.0001) > rhonil        = 1029.,
(PID.TID 0000.0001) > rhoConstFresh = 1000.,
(PID.TID 0000.0001) > eosType = 'JMD95Z',
(PID.TID 0000.0001) >#
(PID.TID 0000.0001) >## Various prescriptions for viscosity and diffusivity.
(PID.TID 0000.0001) > viscAr     = 5.e-04,
(PID.TID 0000.0001) > viscA4Grid = 0.0,
(PID.TID 0000.0001) > diffKhT    = 0.E0,
(PID.TID 0000.0001) > diffKhS    = 0.E0,
(PID.TID 0000.0001) > diffK4T    = 0.E10,
(PID.TID 0000.0001) > diffK4S    = 0.E10,
(PID.TID 0000.0001) > diffKrT    = 1.0e-5,
(PID.TID 0000.0001) > diffKrS    = 1.0e-5,
(PID.TID 0000.0001) > bottomDragQuadratic = 0.002,
(PID.TID 0000.0001) > no_slip_sides     = .TRUE.,
(PID.TID 0000.0001) > no_slip_bottom    = .TRUE.,
(PID.TID 0000.0001) > implicitDiffusion = .TRUE.,
(PID.TID 0000.0001) > implicitViscosity = .TRUE.,
(PID.TID 0000.0001) ># horizontal momentum closure
(PID.TID 0000.0001) > viscC4Leith   = 2.0,
(PID.TID 0000.0001) > viscC4Leithd  = 2.0,
(PID.TID 0000.0001) > viscA4GridMax = 0.8,
(PID.TID 0000.0001) >#
(PID.TID 0000.0001) >## Parameters that control numerical methods like advection schemes and
(PID.TID 0000.0001) >#  treatment of the free-surface.
(PID.TID 0000.0001) > tempAdvScheme = 7,
(PID.TID 0000.0001) > saltAdvScheme = 7,
(PID.TID 0000.0001) > implicitFreeSurface     = .TRUE.,
(PID.TID 0000.0001) > staggerTimeStep         = .TRUE.,
(PID.TID 0000.0001) > exactConserv            = .TRUE.,
(PID.TID 0000.0001) > vectorInvariantMomentum = .TRUE.,
(PID.TID 0000.0001) > useAreaViscLength       = .TRUE.,
(PID.TID 0000.0001) > highOrderVorticity      = .TRUE.,
(PID.TID 0000.0001) > multiDimAdvection       = .TRUE.,
(PID.TID 0000.0001) >#
(PID.TID 0000.0001) >## These parameters seem to be associated with the external forcing.
(PID.TID 0000.0001) > convertFW2Salt = -1.,
(PID.TID 0000.0001) > temp_EvPrRn    =  0.,
(PID.TID 0000.0001) > useRealFreshWaterFlux = .FALSE.,
(PID.TID 0000.0001) > allowFreezing         = .FALSE.,
(PID.TID 0000.0001) >#
(PID.TID 0000.0001) >## Parameters associated with bathymetry specification.
(PID.TID 0000.0001) > hFacMin   = 0.2,
(PID.TID 0000.0001) > hFacMinDr = 5.,
(PID.TID 0000.0001) >#
(PID.TID 0000.0001) >## Parameters for reading, writing, and misc numerical details.
(PID.TID 0000.0001) > globalFiles     = .TRUE.,
(PID.TID 0000.0001) > useSingleCpuIO  = .TRUE.,
(PID.TID 0000.0001) > readBinaryPrec  = 32,
(PID.TID 0000.0001) > writeBinaryPrec = 32,
(PID.TID 0000.0001) > debuglevel      = 2,
(PID.TID 0000.0001) >#
(PID.TID 0000.0001) >## Unused parameters.
(PID.TID 0000.0001) ># gravity = 9.81,
(PID.TID 0000.0001) ># viscA4Grid = 2.0E-3,
(PID.TID 0000.0001) ># viscAhGrid = 2.5E-4,
(PID.TID 0000.0001) ># bottomDraglinear    = 1.E-3,
(PID.TID 0000.0001) ># Note: nonlinFreeSurf=1 with rStar=0 breaks the code.
(PID.TID 0000.0001) ># nonlinFreeSurf = 4,
(PID.TID 0000.0001) ># select_rStar   = 1,
(PID.TID 0000.0001) ># hFacInf   = 0.1,
(PID.TID 0000.0001) ># hFacSup   = 5.,
(PID.TID 0000.0001) ># implicSurfPress = 0.6,
(PID.TID 0000.0001) ># implicDiv2DFlow = 0.6,
(PID.TID 0000.0001) ># useSingleCpuInput = .TRUE.,
(PID.TID 0000.0001) ># set to eccov4, make sure minbathy=20m first
(PID.TID 0000.0001) ># debuglevel = -1,
(PID.TID 0000.0001) ># useJamartWetPoints = .TRUE.,
(PID.TID 0000.0001) ># writeBinaryPrec=64,
(PID.TID 0000.0001) > /
(PID.TID 0000.0001) >### Elliptic solver parameters ------------------------------------------------
(PID.TID 0000.0001) > &PARM02
(PID.TID 0000.0001) > cg2dMaxIters       = 1000,
(PID.TID 0000.0001) ># cg2dTargetResidual = 1.E-8,
(PID.TID 0000.0001) > cg2dTargetResWunit = 1e-18,
(PID.TID 0000.0001) >#
(PID.TID 0000.0001) >#cg2dMaxIters       = 100,
(PID.TID 0000.0001) >#cg2dTargetResidual = 1.E-5,
(PID.TID 0000.0001) > &
(PID.TID 0000.0001) >### Time stepping parameters --------------------------------------------------
(PID.TID 0000.0001) > &PARM03
(PID.TID 0000.0001) > deltaT      =    240.,
(PID.TID 0000.0001) > nIter0      =  0,
(PID.TID 0000.0001) > nTimeSteps  =  15,
(PID.TID 0000.0001) > pChkptFreq  = 864000.,
(PID.TID 0000.0001) > monitorFreq =   240.,
(PID.TID 0000.0001) > abEps       = 0.1,
(PID.TID 0000.0001) >## It is unclear what these specify.
(PID.TID 0000.0001) > pickupStrictlyMatch = .FALSE.,
(PID.TID 0000.0001) > forcing_In_AB       = .FALSE.,
(PID.TID 0000.0001) > momDissip_In_AB     = .FALSE.,
(PID.TID 0000.0001) > dumpInitAndLast     = .FALSE.,
(PID.TID 0000.0001) > /
(PID.TID 0000.0001) >### Gridding parameters -------------------------------------------------------
(PID.TID 0000.0001) > &PARM04
(PID.TID 0000.0001) >## When using a curvilinear grid, only the vertical grid is specified.
(PID.TID 0000.0001) > usingCurvilinearGrid = .TRUE.,
(PID.TID 0000.0001) >## Specify the height of each vertical level.
(PID.TID 0000.0001) > delR =   5.00,   5.00,   5.00,   5.00,   5.00,   5.00,   5.00,   5.00,   5.00,
(PID.TID 0000.0001) >          5.00,   5.00,   5.00,   5.00,   5.00,   5.00,   5.01,   5.01,   5.02,
(PID.TID 0000.0001) >          5.04,   5.07,   5.12,   5.20,   5.31,   5.49,   5.72,   6.04,   6.45,
(PID.TID 0000.0001) >          6.97,   7.62,   8.42,   9.36,  10.46,  11.72,  13.13,  14.70,  16.40,
(PID.TID 0000.0001) >         18.24,  20.18,  22.21,  24.29,  26.43,  28.57,  30.71,  32.79,  34.82,
(PID.TID 0000.0001) >         36.76,  38.60,  40.30,  41.87,  43.28,  44.54,  45.64,  46.58,  47.38,
(PID.TID 0000.0001) >         48.03,  48.55,  48.96,  49.29,  49.53,  49.72,  49.90,  50.11,  50.41,
(PID.TID 0000.0001) >         50.92,  51.69,  52.87,  54.54,  56.79,  59.67,  63.16,  67.26,  71.83,
(PID.TID 0000.0001) >         76.83,  82.11,  87.61,  93.22,  98.91, 104.64, 110.38, 116.12, 121.87,
(PID.TID 0000.0001) >        127.63, 133.38, 139.12, 144.87, 150.63, 156.38, 162.12, 167.87, 173.63,
(PID.TID 0000.0001) >        179.38, 185.12, 190.87, 196.63, 202.38, 208.12, 213.87, 219.63, 225.38,
(PID.TID 0000.0001) >        231.12,
(PID.TID 0000.0001) > /
(PID.TID 0000.0001) ># -----------------------------------------------------------------------------
(PID.TID 0000.0001) >### Bathymetry files and initial condition files
(PID.TID 0000.0001) > &PARM05
(PID.TID 0000.0001) > bathyFile       = 'bathy.bin',
(PID.TID 0000.0001) > hydrogThetaFile = 'T0_2160x540x100.bin',
(PID.TID 0000.0001) > hydrogSaltFile  = 'S0_2160x540x100.bin',
(PID.TID 0000.0001) > uVelInitFile    = 'U0_2160x540x100.bin',
(PID.TID 0000.0001) > vVelInitFile    = 'V0_2160x540x100.bin',
(PID.TID 0000.0001) ># diffKrFile  = 'diffkr_basin_v1m9EfC_llc1080.bin',
(PID.TID 0000.0001) ># viscA4Dfile = 'visc3DblendfromrunobcsCdiv1e6_08Mar2016_aste2160.bin',
(PID.TID 0000.0001) ># viscA4Zfile = 'visc3DblendfromrunobcsCdiv1e6_08Mar2016_aste2160.bin',
(PID.TID 0000.0001) > /
(PID.TID 0000.0001) 
(PID.TID 0000.0001)  INI_PARMS ; starts to read PARM01
(PID.TID 0000.0001)  INI_PARMS ; read PARM01 : OK
(PID.TID 0000.0001)  INI_PARMS ; starts to read PARM02
(PID.TID 0000.0001)  INI_PARMS ; read PARM02 : OK
(PID.TID 0000.0001)  INI_PARMS ; starts to read PARM03
(PID.TID 0000.0001)  INI_PARMS ; read PARM03 : OK
(PID.TID 0000.0001)  INI_PARMS ; starts to read PARM04
(PID.TID 0000.0001)  INI_PARMS ; read PARM04 : OK
(PID.TID 0000.0001)  INI_PARMS ; starts to read PARM05
(PID.TID 0000.0001)  INI_PARMS ; read PARM05 : OK
(PID.TID 0000.0001)  INI_PARMS: finished reading file "data"
(PID.TID 0000.0001)  PACKAGES_BOOT: opening data.pkg
(PID.TID 0000.0001)  OPEN_COPY_DATA_FILE: opening file data.pkg
(PID.TID 0000.0001) // =======================================================
(PID.TID 0000.0001) // Parameter file "data.pkg"
(PID.TID 0000.0001) // =======================================================
(PID.TID 0000.0001) ># Packages
(PID.TID 0000.0001) > &PACKAGES
(PID.TID 0000.0001) > useCAL         = .TRUE.,
(PID.TID 0000.0001) > useEXF         = .TRUE.,
(PID.TID 0000.0001) > useKPP         = .TRUE.,
(PID.TID 0000.0001) > useDiagnostics = .TRUE.,
(PID.TID 0000.0001) > useOBCS        = .TRUE.,
(PID.TID 0000.0001) ># useProfiles=.TRUE.,
(PID.TID 0000.0001) > /
(PID.TID 0000.0001) 
(PID.TID 0000.0001)  PACKAGES_BOOT: finished reading data.pkg
(PID.TID 0000.0001)  PACKAGES_BOOT: On/Off package Summary
 --------  pkgs with a standard "usePKG" On/Off switch in "data.pkg":  --------
 pkg/obcs                 compiled   and   used ( useOBCS                  = T )
 pkg/kpp                  compiled   and   used ( useKPP                   = T )
 pkg/cal                  compiled   and   used ( useCAL                   = T )
 pkg/exf                  compiled   and   used ( useEXF                   = T )
 pkg/diagnostics          compiled   and   used ( useDiagnostics           = T )
 -------- pkgs without standard "usePKG" On/Off switch in "data.pkg":  --------
 pkg/generic_advdiff      compiled   and   used ( useGAD                   = T )
 pkg/mom_common           compiled   and   used ( momStepping              = T )
 pkg/mom_vecinv           compiled   and   used ( +vectorInvariantMomentum = T )
 pkg/monitor              compiled   and   used ( monitorFreq > 0.         = T )
 pkg/debug                compiled but not used ( debugMode                = F )
 pkg/exch2                compiled   and   used
 pkg/rw                   compiled   and   used
 pkg/mdsio                compiled   and   used
(PID.TID 0000.0001)  PACKAGES_BOOT: End of package Summary
(PID.TID 0000.0001) 
(PID.TID 0000.0001) CAL_READPARMS: opening data.cal
(PID.TID 0000.0001)  OPEN_COPY_DATA_FILE: opening file data.cal
(PID.TID 0000.0001) // =======================================================
(PID.TID 0000.0001) // Parameter file "data.cal"
(PID.TID 0000.0001) // =======================================================
(PID.TID 0000.0001) >#
(PID.TID 0000.0001) ># *******************
(PID.TID 0000.0001) ># Calendar Parameters
(PID.TID 0000.0001) ># *******************
(PID.TID 0000.0001) > &CAL_NML
(PID.TID 0000.0001) > TheCalendar='gregorian',
(PID.TID 0000.0001) > startDate_1=20030101,
(PID.TID 0000.0001) > startDate_2=000000,
(PID.TID 0000.0001) > calendarDumps = .TRUE.,
(PID.TID 0000.0001) > &
(PID.TID 0000.0001) 
(PID.TID 0000.0001) CAL_READPARMS: finished reading data.cal
(PID.TID 0000.0001) EXF_READPARMS: opening data.exf
(PID.TID 0000.0001)  OPEN_COPY_DATA_FILE: opening file data.exf
(PID.TID 0000.0001) // =======================================================
(PID.TID 0000.0001) // Parameter file "data.exf"
(PID.TID 0000.0001) // =======================================================
(PID.TID 0000.0001) ># *********************
(PID.TID 0000.0001) ># External Forcing Data
(PID.TID 0000.0001) ># *********************
(PID.TID 0000.0001) >#
(PID.TID 0000.0001) > &EXF_NML_01
(PID.TID 0000.0001) >#
(PID.TID 0000.0001) > useAtmWind        = .TRUE.,
(PID.TID 0000.0001) >#
(PID.TID 0000.0001) >#TO COMBINE WITH ALLOW_ZENITH_ANGLE:
(PID.TID 0000.0001) ># exf_albedo        = 0.1,
(PID.TID 0000.0001) ># useExfZenIncoming = .TRUE.,
(PID.TID 0000.0001) ># select_ZenAlbedo  = 1,
(PID.TID 0000.0001) >##
(PID.TID 0000.0001) ># ocean_emissivity = 0.97,
(PID.TID 0000.0001) ># ice_emissivity = 0.95,
(PID.TID 0000.0001) ># snow_emissivity = 0.95,
(PID.TID 0000.0001) >#
(PID.TID 0000.0001) ># exf_albedo        = 0.1556,
(PID.TID 0000.0001) > exf_albedo        = 0.1,
(PID.TID 0000.0001) > exf_scal_BulkCdn  = 0.9997,
(PID.TID 0000.0001) > exf_iprec         = 32,
(PID.TID 0000.0001) > exf_iprec_obcs    = 32,
(PID.TID 0000.0001) > exf_yftype        = 'RL',
(PID.TID 0000.0001) > useExfYearlyFields= .TRUE.,
(PID.TID 0000.0001) > useExfCheckRange  = .FALSE.,
(PID.TID 0000.0001) > useRelativeWind   = .TRUE.,
(PID.TID 0000.0001) > &
(PID.TID 0000.0001) >#
(PID.TID 0000.0001) > &EXF_NML_02
(PID.TID 0000.0001) > precipfile        = 'jra55/jra55_rain',
(PID.TID 0000.0001) > atempfile         = 'jra55/jra55_tmp2m_degC',
(PID.TID 0000.0001) > aqhfile           = 'jra55/jra55_spfh2m',
(PID.TID 0000.0001) > swdownfile        = 'jra55/jra55_dsw',
(PID.TID 0000.0001) > lwdownfile        = 'jra55/jra55_dlw',
(PID.TID 0000.0001) > apressurefile     = 'jra55/jra55_pres_tide',
(PID.TID 0000.0001) > uwindfile         = 'jra55/jra55_u10m',
(PID.TID 0000.0001) > vwindfile         = 'jra55/jra55_v10m',
(PID.TID 0000.0001) > runofffile        = 'runoff1p2472-360x180x12.bin',
(PID.TID 0000.0001) ># runofffile        = 'fekete_runoff_SMOOTH_llc270_v3.bin',
(PID.TID 0000.0001) >#
(PID.TID 0000.0001) > precipstartdate1  = 19790101,
(PID.TID 0000.0001) > precipstartdate2  = 013000,
(PID.TID 0000.0001) > precipperiod      = 10800.0,
(PID.TID 0000.0001) > atempstartdate1   = 19790101,
(PID.TID 0000.0001) > atempstartdate2   = 000000,
(PID.TID 0000.0001) > atempperiod       = 10800.0,
(PID.TID 0000.0001) > aqhstartdate1     = 19790101,
(PID.TID 0000.0001) > aqhstartdate2     = 000000,
(PID.TID 0000.0001) > aqhperiod         = 10800.0,
(PID.TID 0000.0001) > swdownstartdate1  = 19790101,
(PID.TID 0000.0001) > swdownstartdate2  = 013000,
(PID.TID 0000.0001) > swdownperiod      = 10800.0,
(PID.TID 0000.0001) > lwdownstartdate1  = 19790101,
(PID.TID 0000.0001) > lwdownstartdate2  = 013000,
(PID.TID 0000.0001) > lwdownperiod      = 10800.0,
(PID.TID 0000.0001) > apressurestartdate1  = 19790101,
(PID.TID 0000.0001) > apressurestartdate2  = 003000,
(PID.TID 0000.0001) > apressureperiod      = 3600.0,
(PID.TID 0000.0001) > uwindstartdate1   = 19790101,
(PID.TID 0000.0001) > uwindstartdate2   = 000000,
(PID.TID 0000.0001) > uwindperiod       = 10800.0,
(PID.TID 0000.0001) > vwindstartdate1   = 19790101,
(PID.TID 0000.0001) > vwindstartdate2   = 000000,
(PID.TID 0000.0001) > vwindperiod       = 10800.0,
(PID.TID 0000.0001) ># "*period=-12" specifies monthly-mean forcing
(PID.TID 0000.0001) > runoffperiod      = -12,
(PID.TID 0000.0001) > &
(PID.TID 0000.0001) >#
(PID.TID 0000.0001) > &EXF_NML_03
(PID.TID 0000.0001) > exf_offset_atemp  = 273.15,
(PID.TID 0000.0001) > exf_inscal_swdown = -1.,
(PID.TID 0000.0001) > exf_inscal_lwdown = -1.,
(PID.TID 0000.0001) ># 1/365/24/3600 yr/s conversion, runoff [m/yr --> m/s]
(PID.TID 0000.0001) > exf_inscal_runoff = 3.1710e-08,
(PID.TID 0000.0001) ># commenting out inscal_runoff equiv to setting to detfault=1
(PID.TID 0000.0001) >
(PID.TID 0000.0001) > &
(PID.TID 0000.0001) >#
(PID.TID 0000.0001) > &EXF_NML_04
(PID.TID 0000.0001) >#if in global lat/lon, need interp, comment out runoff_interpMethod
(PID.TID 0000.0001) >#if already in aste compact format, set runoff_interpMethod=0
(PID.TID 0000.0001) ># runoff_interpMethod = 0,
(PID.TID 0000.0001) >#
(PID.TID 0000.0001) > precip_lon0       = 0.0D0,
(PID.TID 0000.0001) > precip_lon_inc    = 0.5625D0,
(PID.TID 0000.0001) > precip_lat0       = -89.57009D0,
(PID.TID 0000.0001) > precip_lat_inc    = 0.556914D0, 0.560202D0, 0.560946D0, 0.561227D0, 0.561363D0,
(PID.TID 0000.0001) >                     0.561440D0, 0.561487D0, 0.561518D0, 0.561539D0, 0.561554D0,
(PID.TID 0000.0001) >                     0.561566D0, 0.561575D0, 0.561582D0, 0.561587D0, 0.561592D0,
(PID.TID 0000.0001) >                     289*0.561619268965519,
(PID.TID 0000.0001) >                     0.561592D0, 0.561587D0, 0.561582D0, 0.561575D0, 0.561566D0,
(PID.TID 0000.0001) >                     0.561554D0, 0.561539D0, 0.561518D0, 0.561487D0, 0.561440D0,
(PID.TID 0000.0001) >                     0.561363D0, 0.561227D0, 0.560946D0, 0.560202D0, 0.556914D0,
(PID.TID 0000.0001) > precip_nlon       = 640,
(PID.TID 0000.0001) > precip_nlat       = 320,
(PID.TID 0000.0001) >#
(PID.TID 0000.0001) > atemp_lon0        = 0.0D0,
(PID.TID 0000.0001) > atemp_lon_inc     = 0.5625D0,
(PID.TID 0000.0001) > atemp_lat0        = -89.57009D0,
(PID.TID 0000.0001) > atemp_lat_inc     = 0.556914D0, 0.560202D0, 0.560946D0, 0.561227D0, 0.561363D0,
(PID.TID 0000.0001) >                     0.561440D0, 0.561487D0, 0.561518D0, 0.561539D0, 0.561554D0,
(PID.TID 0000.0001) >                     0.561566D0, 0.561575D0, 0.561582D0, 0.561587D0, 0.561592D0,
(PID.TID 0000.0001) >                     289*0.561619268965519,
(PID.TID 0000.0001) >                     0.561592D0, 0.561587D0, 0.561582D0, 0.561575D0, 0.561566D0,
(PID.TID 0000.0001) >                     0.561554D0, 0.561539D0, 0.561518D0, 0.561487D0, 0.561440D0,
(PID.TID 0000.0001) >                     0.561363D0, 0.561227D0, 0.560946D0, 0.560202D0, 0.556914D0,
(PID.TID 0000.0001) > atemp_nlon        = 640,
(PID.TID 0000.0001) > atemp_nlat        = 320,
(PID.TID 0000.0001) >#
(PID.TID 0000.0001) > aqh_lon0          = 0.0D0,
(PID.TID 0000.0001) > aqh_lon_inc       = 0.5625D0,
(PID.TID 0000.0001) > aqh_lat0          = -89.57009D0,
(PID.TID 0000.0001) > aqh_lat_inc       = 0.556914D0, 0.560202D0, 0.560946D0, 0.561227D0, 0.561363D0,
(PID.TID 0000.0001) >                     0.561440D0, 0.561487D0, 0.561518D0, 0.561539D0, 0.561554D0,
(PID.TID 0000.0001) >                     0.561566D0, 0.561575D0, 0.561582D0, 0.561587D0, 0.561592D0,
(PID.TID 0000.0001) >                     289*0.561619268965519,
(PID.TID 0000.0001) >                     0.561592D0, 0.561587D0, 0.561582D0, 0.561575D0, 0.561566D0,
(PID.TID 0000.0001) >                     0.561554D0, 0.561539D0, 0.561518D0, 0.561487D0, 0.561440D0,
(PID.TID 0000.0001) >                     0.561363D0, 0.561227D0, 0.560946D0, 0.560202D0, 0.556914D0,
(PID.TID 0000.0001) > aqh_nlon          = 640,
(PID.TID 0000.0001) > aqh_nlat          = 320,
(PID.TID 0000.0001) >#
(PID.TID 0000.0001) > swdown_lon0       = 0.0D0,
(PID.TID 0000.0001) > swdown_lon_inc    = 0.5625D0,
(PID.TID 0000.0001) > swdown_lat0       = -89.57009D0,
(PID.TID 0000.0001) > swdown_lat_inc    = 0.556914D0, 0.560202D0, 0.560946D0, 0.561227D0, 0.561363D0,
(PID.TID 0000.0001) >                     0.561440D0, 0.561487D0, 0.561518D0, 0.561539D0, 0.561554D0,
(PID.TID 0000.0001) >                     0.561566D0, 0.561575D0, 0.561582D0, 0.561587D0, 0.561592D0,
(PID.TID 0000.0001) >                     289*0.561619268965519,
(PID.TID 0000.0001) >                     0.561592D0, 0.561587D0, 0.561582D0, 0.561575D0, 0.561566D0,
(PID.TID 0000.0001) >                     0.561554D0, 0.561539D0, 0.561518D0, 0.561487D0, 0.561440D0,
(PID.TID 0000.0001) >                     0.561363D0, 0.561227D0, 0.560946D0, 0.560202D0, 0.556914D0,
(PID.TID 0000.0001) > swdown_nlon       = 640,
(PID.TID 0000.0001) > swdown_nlat       = 320,
(PID.TID 0000.0001) >#
(PID.TID 0000.0001) > lwdown_lon0       = 0.0D0,
(PID.TID 0000.0001) > lwdown_lon_inc    = 0.5625D0,
(PID.TID 0000.0001) > lwdown_lat0       = -89.57009D0,
(PID.TID 0000.0001) > lwdown_lat_inc    = 0.556914D0, 0.560202D0, 0.560946D0, 0.561227D0, 0.561363D0,
(PID.TID 0000.0001) >                     0.561440D0, 0.561487D0, 0.561518D0, 0.561539D0, 0.561554D0,
(PID.TID 0000.0001) >                     0.561566D0, 0.561575D0, 0.561582D0, 0.561587D0, 0.561592D0,
(PID.TID 0000.0001) >                     289*0.561619268965519,
(PID.TID 0000.0001) >                     0.561592D0, 0.561587D0, 0.561582D0, 0.561575D0, 0.561566D0,
(PID.TID 0000.0001) >                     0.561554D0, 0.561539D0, 0.561518D0, 0.561487D0, 0.561440D0,
(PID.TID 0000.0001) >                     0.561363D0, 0.561227D0, 0.560946D0, 0.560202D0, 0.556914D0,
(PID.TID 0000.0001) > lwdown_nlon       = 640,
(PID.TID 0000.0001) > lwdown_nlat       = 320,
(PID.TID 0000.0001) >#
(PID.TID 0000.0001) > apressure_lon0       = 0.0D0,
(PID.TID 0000.0001) > apressure_lon_inc    = 0.5625D0,
(PID.TID 0000.0001) > apressure_lat0       = -89.57009D0,
(PID.TID 0000.0001) > apressure_lat_inc    = 0.556914D0, 0.560202D0, 0.560946D0, 0.561227D0, 0.561363D0,
(PID.TID 0000.0001) >                     0.561440D0, 0.561487D0, 0.561518D0, 0.561539D0, 0.561554D0,
(PID.TID 0000.0001) >                     0.561566D0, 0.561575D0, 0.561582D0, 0.561587D0, 0.561592D0,
(PID.TID 0000.0001) >                     289*0.561619268965519,
(PID.TID 0000.0001) >                     0.561592D0, 0.561587D0, 0.561582D0, 0.561575D0, 0.561566D0,
(PID.TID 0000.0001) >                     0.561554D0, 0.561539D0, 0.561518D0, 0.561487D0, 0.561440D0,
(PID.TID 0000.0001) >                     0.561363D0, 0.561227D0, 0.560946D0, 0.560202D0, 0.556914D0,
(PID.TID 0000.0001) > apressure_nlon       = 640,
(PID.TID 0000.0001) > apressure_nlat       = 320,
(PID.TID 0000.0001) >#
(PID.TID 0000.0001) > uwind_lon0        = 0.0D0,
(PID.TID 0000.0001) > uwind_lon_inc     = 0.5625D0,
(PID.TID 0000.0001) > uwind_lat0        = -89.57009D0,
(PID.TID 0000.0001) > uwind_lat_inc     = 0.556914D0, 0.560202D0, 0.560946D0, 0.561227D0, 0.561363D0,
(PID.TID 0000.0001) >                     0.561440D0, 0.561487D0, 0.561518D0, 0.561539D0, 0.561554D0,
(PID.TID 0000.0001) >                     0.561566D0, 0.561575D0, 0.561582D0, 0.561587D0, 0.561592D0,
(PID.TID 0000.0001) >                     289*0.561619268965519,
(PID.TID 0000.0001) >                     0.561592D0, 0.561587D0, 0.561582D0, 0.561575D0, 0.561566D0,
(PID.TID 0000.0001) >                     0.561554D0, 0.561539D0, 0.561518D0, 0.561487D0, 0.561440D0,
(PID.TID 0000.0001) >                     0.561363D0, 0.561227D0, 0.560946D0, 0.560202D0, 0.556914D0,
(PID.TID 0000.0001) > uwind_nlon        = 640,
(PID.TID 0000.0001) > uwind_nlat        = 320,
(PID.TID 0000.0001) >#
(PID.TID 0000.0001) > vwind_lon0        = 0.0D0,
(PID.TID 0000.0001) > vwind_lon_inc     = 0.5625D0,
(PID.TID 0000.0001) > vwind_lat0        = -89.57009D0,
(PID.TID 0000.0001) > vwind_lat_inc     = 0.556914D0, 0.560202D0, 0.560946D0, 0.561227D0, 0.561363D0,
(PID.TID 0000.0001) >                     0.561440D0, 0.561487D0, 0.561518D0, 0.561539D0, 0.561554D0,
(PID.TID 0000.0001) >                     0.561566D0, 0.561575D0, 0.561582D0, 0.561587D0, 0.561592D0,
(PID.TID 0000.0001) >                     289*0.561619268965519,
(PID.TID 0000.0001) >                     0.561592D0, 0.561587D0, 0.561582D0, 0.561575D0, 0.561566D0,
(PID.TID 0000.0001) >                     0.561554D0, 0.561539D0, 0.561518D0, 0.561487D0, 0.561440D0,
(PID.TID 0000.0001) >                     0.561363D0, 0.561227D0, 0.560946D0, 0.560202D0, 0.556914D0,
(PID.TID 0000.0001) > vwind_nlon        = 640,
(PID.TID 0000.0001) > vwind_nlat        = 320,
(PID.TID 0000.0001) >#
(PID.TID 0000.0001) > runoff_lon0       = 0.50D0,
(PID.TID 0000.0001) > runoff_lon_inc    = 1.0D0,
(PID.TID 0000.0001) > runoff_lat0       = -89.5D0,
(PID.TID 0000.0001) > runoff_lat_inc    = 179*1.,
(PID.TID 0000.0001) > runoff_nlon       = 360,
(PID.TID 0000.0001) > runoff_nlat       = 180,
(PID.TID 0000.0001) > &
(PID.TID 0000.0001) >#
(PID.TID 0000.0001) > &EXF_NML_OBCS
(PID.TID 0000.0001) >  obcsSstartdate1   = 20021215,
(PID.TID 0000.0001) >  obcsSstartdate2   = 060000,
(PID.TID 0000.0001) >  obcsSperiod       = 2629800.0,
(PID.TID 0000.0001) >#
(PID.TID 0000.0001) >  obcsNstartdate1   = 20021215,
(PID.TID 0000.0001) >  obcsNstartdate2   = 060000,
(PID.TID 0000.0001) >  obcsNperiod       = 2629800.0,
(PID.TID 0000.0001) >#
(PID.TID 0000.0001) >  obcsEstartdate1   = 20021215,
(PID.TID 0000.0001) >  obcsEstartdate2   = 060000,
(PID.TID 0000.0001) >  obcsEperiod       = 2629800.0,
(PID.TID 0000.0001) >#
(PID.TID 0000.0001) >  obcsWstartdate1   = 20021215,
(PID.TID 0000.0001) >  obcsWstartdate2   = 060000,
(PID.TID 0000.0001) >  obcsWperiod       = 2629800.0,
(PID.TID 0000.0001) > &
(PID.TID 0000.0001) 
(PID.TID 0000.0001) EXF_READPARMS: reading EXF_NML_01
(PID.TID 0000.0001) EXF_READPARMS: reading EXF_NML_02
(PID.TID 0000.0001) EXF_READPARMS: reading EXF_NML_03
(PID.TID 0000.0001) EXF_READPARMS: reading EXF_NML_04
(PID.TID 0000.0001) EXF_READPARMS: reading EXF_NML_OBCS
(PID.TID 0000.0001) EXF_READPARMS: finished reading data.exf
(PID.TID 0000.0001)  OBCS_READPARMS: opening data.obcs
(PID.TID 0000.0001)  OPEN_COPY_DATA_FILE: opening file data.obcs
(PID.TID 0000.0001) // =======================================================
(PID.TID 0000.0001) // Parameter file "data.obcs"
(PID.TID 0000.0001) // =======================================================
(PID.TID 0000.0001) ># ***************
(PID.TID 0000.0001) ># Open boundaries
(PID.TID 0000.0001) ># ***************
(PID.TID 0000.0001) > &OBCS_PARM01
(PID.TID 0000.0001) >OB_Jnorth = 1080*537, 540*0,
(PID.TID 0000.0001) >OB_Jsouth = 1080*8, 540*0,
(PID.TID 0000.0001) >OB_Ieast = 540*0, 1080*533,
(PID.TID 0000.0001) >OB_Iwest = 540*0, 1080*4,
(PID.TID 0000.0001) >#
(PID.TID 0000.0001) > useOBCSprescribe=.TRUE.,
(PID.TID 0000.0001) ># useOBCSsponge=.true.,
(PID.TID 0000.0001) > OBCS_monSelect = 3,
(PID.TID 0000.0001) ># >0: use 1rst O. upwind adv-scheme @ OB (=1: only if outflow)
(PID.TID 0000.0001) > OBCS_u1_adv_T = 1,
(PID.TID 0000.0001) > OBCS_u1_adv_S = 1,
(PID.TID 0000.0001) >#
(PID.TID 0000.0001) > OBSsFile='OBSs_1620x100x26.bin',
(PID.TID 0000.0001) > OBStFile='OBSt_1620x100x26.bin',
(PID.TID 0000.0001) > OBSuFile='OBSu_1620x100x26.bin',
(PID.TID 0000.0001) > OBSvFile='OBSv_1620x100x26.bin',
(PID.TID 0000.0001) >#
(PID.TID 0000.0001) > OBNsFile='OBNs_1620x100x26.bin',
(PID.TID 0000.0001) > OBNtFile='OBNt_1620x100x26.bin',
(PID.TID 0000.0001) > OBNuFile='OBNu_1620x100x26.bin',
(PID.TID 0000.0001) > OBNvFile='OBNv_1620x100x26.bin',
(PID.TID 0000.0001) >#
(PID.TID 0000.0001) > OBEsFile='OBEs_1620x100x26.bin',
(PID.TID 0000.0001) > OBEtFile='OBEt_1620x100x26.bin',
(PID.TID 0000.0001) > OBEuFile='OBEu_1620x100x26.bin',
(PID.TID 0000.0001) > OBEvFile='OBEv_1620x100x26.bin',
(PID.TID 0000.0001) >#
(PID.TID 0000.0001) > OBWsFile='OBWs_1620x100x26.bin',
(PID.TID 0000.0001) > OBWtFile='OBWt_1620x100x26.bin',
(PID.TID 0000.0001) > OBWuFile='OBWu_1620x100x26.bin',
(PID.TID 0000.0001) > OBWvFile='OBWv_1620x100x26.bin',
(PID.TID 0000.0001) ># Balancing
(PID.TID 0000.0001) > useOBCSbalance = .TRUE.,
(PID.TID 0000.0001) > OBCS_balanceFacN = -1,
(PID.TID 0000.0001) > OBCS_balanceFacS = -1,
(PID.TID 0000.0001) > OBCS_balanceFacE = -1,
(PID.TID 0000.0001) > OBCS_balanceFacW = -1,
(PID.TID 0000.0001) >## *****************************************
(PID.TID 0000.0001) >## Tidal BC parameters
(PID.TID 0000.0001) >## *****************************************
(PID.TID 0000.0001) > useOBCStides = .TRUE.,
(PID.TID 0000.0001) >##components   = M2       S2     N2       K2       K1      O1       P1       Q1       Mf         Mm
(PID.TID 0000.0001) >##periods (hr) = 12.4206  12     12.6583  11.9672  23.9345 25.8193  24.0659  26.8684  327.8599   661.31
(PID.TID 0000.0001) >##period(sec)  = 44714.165 43200.001 45570.054 43082.05 86164.077 92949.636 86637.2 96726.086 1180295.5 2380715.9
(PID.TID 0000.0001) >##components      m2        s2        n2        k2        k1        o1        p1        q1        mf        mm        m4        ms4       mn4
(PID.TID 0000.0001) >##period (hr): 12.420601 12.000000 12.658348 11.967236 23.934466 25.819343 24.065889 26.868357 327.859874 661.309962 6.210303 6.103339 6.269178
(PID.TID 0000.0001) >##period (s):  44714.165192 43200.001287 45570.053512 43082.050319 86164.077005 92949.635701 86637.199772 96726.085703 1180295.545550 2380715.863587 22357.090551 21972.021930 22569.042448
(PID.TID 0000.0001) > tidalPeriod  = 44714.165 43200.001 45570.054 43082.050 86164.077 92949.636 86637.200 96726.086 1180295.546 2380715.864 22357.091 21972.022 22569.042,
(PID.TID 0000.0001) > OBSamFile='OBSam_1620x13.bin',
(PID.TID 0000.0001) > OBNamFile='OBNam_1620x13.bin',
(PID.TID 0000.0001) > OBWamFile='OBWam_1620x13.bin',
(PID.TID 0000.0001) > OBEamFile='OBEam_1620x13.bin',
(PID.TID 0000.0001) > OBSphFile='OBSph_1620x13.bin',
(PID.TID 0000.0001) > OBNphFile='OBNph_1620x13.bin',
(PID.TID 0000.0001) > OBWphFile='OBWph_1620x13.bin',
(PID.TID 0000.0001) > OBEphFile='OBEph_1620x13.bin',
(PID.TID 0000.0001) > &
(PID.TID 0000.0001) ># *****************************************
(PID.TID 0000.0001) ># Sponge Layer Parameters.
(PID.TID 0000.0001) ># *****************************************
(PID.TID 0000.0001) > &OBCS_PARM03
(PID.TID 0000.0001) ># Urelaxobcsinner=2629800.E0,
(PID.TID 0000.0001) ># Urelaxobcsbound=43200.E0,
(PID.TID 0000.0001) >#
(PID.TID 0000.0001) ># Vrelaxobcsinner=2629800.E0,
(PID.TID 0000.0001) ># Vrelaxobcsbound=43200.E0,
(PID.TID 0000.0001) >#
(PID.TID 0000.0001) ># spongeThickness=16,
(PID.TID 0000.0001) > &
(PID.TID 0000.0001) 
(PID.TID 0000.0001)  OBCS_READPARMS: finished reading data.obcs
(PID.TID 0000.0001)  OB_indexUnset = /* unset OB index value (i.e. no OB) */
(PID.TID 0000.0001)                       0
(PID.TID 0000.0001)     ;
(PID.TID 0000.0001)  Northern OB global indices : OB_Jnorth =
(PID.TID 0000.0001)  1080 @      537,                           /* I =   1:1080 */
(PID.TID 0000.0001)   540 @        0                            /* I =***:*** */
(PID.TID 0000.0001)  Southern OB global indices : OB_Jsouth =
(PID.TID 0000.0001)  1080 @        8,                           /* I =   1:1080 */
(PID.TID 0000.0001)   540 @        0                            /* I =***:*** */
(PID.TID 0000.0001)  Eastern  OB global indices : OB_Ieast =
(PID.TID 0000.0001)   540 @        0,                           /* J =   1: 540 */
(PID.TID 0000.0001)  1080 @      533                            /* J =541:*** */
(PID.TID 0000.0001)  Western  OB global indices : OB_Iwest =
(PID.TID 0000.0001)   540 @        0,                           /* J =   1: 540 */
(PID.TID 0000.0001)  1080 @        4                            /* J =541:*** */
(PID.TID 0000.0001) 
(PID.TID 0000.0001)  KPP_READPARMS: opening data.kpp
(PID.TID 0000.0001)  OPEN_COPY_DATA_FILE: opening file data.kpp
(PID.TID 0000.0001) // =======================================================
(PID.TID 0000.0001) // Parameter file "data.kpp"
(PID.TID 0000.0001) // =======================================================
(PID.TID 0000.0001) ># KPP parameters
(PID.TID 0000.0001) > &KPP_PARM01
(PID.TID 0000.0001) >### KPPmixingMaps   = .FALSE.,
(PID.TID 0000.0001) >### KPPwriteState   = .FALSE.,
(PID.TID 0000.0001) >### kpp_dumpFreq    = 0.,
(PID.TID 0000.0001) >### kpp_tavefreq    = 0.,
(PID.TID 0000.0001) >### Ricr            = 0.3559,
(PID.TID 0000.0001) >### Riinfty         = 0.6998,
(PID.TID 0000.0001) > &
(PID.TID 0000.0001) 
(PID.TID 0000.0001)  KPP_READPARMS ; starts to read KPP_PARM01
(PID.TID 0000.0001)  KPP_READPARMS ; read KPP_PARM01 : OK
(PID.TID 0000.0001)  KPP_READPARMS: finished reading data.kpp
(PID.TID 0000.0001)  DIAGNOSTICS_READPARMS: opening data.diagnostics
(PID.TID 0000.0001)  OPEN_COPY_DATA_FILE: opening file data.diagnostics
(PID.TID 0000.0001) // =======================================================
(PID.TID 0000.0001) // Parameter file "data.diagnostics"
(PID.TID 0000.0001) // =======================================================
(PID.TID 0000.0001) ># Diagnostic Package Choices
(PID.TID 0000.0001) >#-----------------
(PID.TID 0000.0001) ># for each output-stream:
(PID.TID 0000.0001) >#  filename(n) : prefix of the output file name (only 8.c long) for outp.stream n
(PID.TID 0000.0001) >#  frequency(n):< 0 : write snap-shot output every multiple of |frequency| (iter)
(PID.TID 0000.0001) >#               > 0 : write time-average output every multiple of frequency (iter)
(PID.TID 0000.0001) >#  levels(:,n) : list of levels to write to file (Notes: declared as REAL)
(PID.TID 0000.0001) >#                 when this entry is missing, select all common levels of this list
(PID.TID 0000.0001) >#  fields(:,n) : list of diagnostics fields (8.c) (see "available_diagnostics" file
(PID.TID 0000.0001) >#                 for the list of all available diag. in this particular config)
(PID.TID 0000.0001) >#--------------------------------------------------------------------
(PID.TID 0000.0001) >#
(PID.TID 0000.0001) > &diagnostics_list
(PID.TID 0000.0001) >#
(PID.TID 0000.0001) >   dumpatlast = .TRUE.,
(PID.TID 0000.0001) >#
(PID.TID 0000.0001) >#---
(PID.TID 0000.0001) >  frequency(1) = 3600.0,
(PID.TID 0000.0001) >   fields(1:5,1) = 'ETAN', 'oceTAUX', 'oceTAUY', 'EXFuwind', 'EXFvwind',
(PID.TID 0000.0001) >   filename(1) = 'diags/surface',
(PID.TID 0000.0001) >#---
(PID.TID 0000.0001) >  frequency(2) = 3600.0,
(PID.TID 0000.0001) >   fields(1:5,2) = 'THETA', 'SALT', 'UVEL', 'VVEL', 'WVEL',
(PID.TID 0000.0001) >   filename(2) = 'diags/interior',
(PID.TID 0000.0001) >#   levels(1:55,2) =  1., 2., 3., 4., 5., 6., 7., 8., 9.,10.,11.,13.,15.,
(PID.TID 0000.0001) >#                     17.,19.,21.,23.,25.,27.,29.,31.,33.,35.,37.,39.,41.,43.,45.,
(PID.TID 0000.0001) >#                     47.,49.,51.,53.,55.,57.,59.,61.,63.,65.,67.,69.,71.,73.,75.,
(PID.TID 0000.0001) >#                     77.,79.,81.,83.,85.,87.,89.,91.,93.,95.,97.,99.,
(PID.TID 0000.0001) > /
(PID.TID 0000.0001) >#
(PID.TID 0000.0001) >#
(PID.TID 0000.0001) ># Parameter for Diagnostics of per level statistics:
(PID.TID 0000.0001) >#-----------------
(PID.TID 0000.0001) ># for each output-stream:
(PID.TID 0000.0001) >#  stat_fname(n) : prefix of the output file name (only 8.c long) for outp.stream n
(PID.TID 0000.0001) >#  stat_freq(n):< 0 : write snap-shot output every |stat_freq| seconds
(PID.TID 0000.0001) >#               > 0 : write time-average output every stat_freq seconds
(PID.TID 0000.0001) >#  stat_phase(n)    : write at time = stat_phase + multiple of |stat_freq|
(PID.TID 0000.0001) >#  stat_region(:,n) : list of "regions" (default: 1 region only=global)
(PID.TID 0000.0001) >#  stat_fields(:,n) : list of diagnostics fields (8.c) (see "available_diagnostics.log"
(PID.TID 0000.0001) >#                 file for the list of all available diag. in this particular config)
(PID.TID 0000.0001) >#-----------------
(PID.TID 0000.0001) > &DIAG_STATIS_PARMS
(PID.TID 0000.0001) ># diagSt_regMaskFile='basin_masks_eccollc_90x50.bin',
(PID.TID 0000.0001) ># nSetRegMskFile=1,
(PID.TID 0000.0001) ># set_regMask(1)= 1,  1,  1,  1,  1,  1,  1,  1,  1,
(PID.TID 0000.0001) >#                 1,  1,  1,  1,  1,  1,  1,  1
(PID.TID 0000.0001) ># val_regMask(1)= 1., 2., 3., 4., 5., 6., 7., 8., 9.,
(PID.TID 0000.0001) >#                10.,11.,12.,13.,14.,15.,16.,17.
(PID.TID 0000.0001) >##---
(PID.TID 0000.0001) ># stat_fields(1,1)= 'ETAN    ','ETANSQ  ','DETADT2 ',
(PID.TID 0000.0001) >#                   'UVEL    ','VVEL    ','WVEL    ',
(PID.TID 0000.0001) >#                   'THETA   ','SALT    ',
(PID.TID 0000.0001) >#    stat_fname(1)= 'dynStDiag',
(PID.TID 0000.0001) >#     stat_freq(1)= 3153600.,
(PID.TID 0000.0001) ># stat_region(1,1)=  1, 2, 3, 4, 5, 6, 7, 8, 9,
(PID.TID 0000.0001) >#                   10,11,12,13,14,15,16,17
(PID.TID 0000.0001) >##---
(PID.TID 0000.0001) ># stat_fields(1,2)= 'oceTAUX ','oceTAUY ',
(PID.TID 0000.0001) >#                   'surForcT','surForcS','TFLUX   ','SFLUX   ',
(PID.TID 0000.0001) >#                   'oceQnet ','oceSflux','oceFWflx',
(PID.TID 0000.0001) >#    stat_fname(2)= 'surfStDiag',
(PID.TID 0000.0001) >#     stat_freq(2)= 3153600.,
(PID.TID 0000.0001) ># stat_region(1,2)=  1, 2, 3, 4, 5, 6, 7, 8, 9,
(PID.TID 0000.0001) >#                   10,11,12,13,14,15,16,17
(PID.TID 0000.0001) > /
(PID.TID 0000.0001) 
(PID.TID 0000.0001) S/R DIAGNOSTICS_READPARMS, read namelist "diagnostics_list": start
(PID.TID 0000.0001) S/R DIAGNOSTICS_READPARMS, read namelist "diagnostics_list": OK
(PID.TID 0000.0001) S/R DIAGNOSTICS_READPARMS, read namelist "DIAG_STATIS_PARMS": start
(PID.TID 0000.0001) S/R DIAGNOSTICS_READPARMS, read namelist "DIAG_STATIS_PARMS": OK
(PID.TID 0000.0001)  DIAGNOSTICS_READPARMS: global parameter summary:
(PID.TID 0000.0001)  dumpAtLast = /* always write time-ave diags at the end */
(PID.TID 0000.0001)                   T
(PID.TID 0000.0001)     ;
(PID.TID 0000.0001)  diag_mnc =   /* write NetCDF output files */
(PID.TID 0000.0001)                   F
(PID.TID 0000.0001)     ;
(PID.TID 0000.0001)  useMissingValue = /* put MissingValue where mask = 0 */
(PID.TID 0000.0001)                   F
(PID.TID 0000.0001)     ;
(PID.TID 0000.0001)  diagCG_maxIters = /* max number of iters in diag_cg2d */
(PID.TID 0000.0001)                    1000
(PID.TID 0000.0001)     ;
(PID.TID 0000.0001)  diagCG_resTarget = /* residual target for diag_cg2d */
(PID.TID 0000.0001)                 1.000000000000000E-07
(PID.TID 0000.0001)     ;
(PID.TID 0000.0001)  diagCG_pcOffDFac = /* preconditioner off-diagonal factor */
(PID.TID 0000.0001)                 9.611687812379854E-01
(PID.TID 0000.0001)     ;
(PID.TID 0000.0001) -----------------------------------------------------
(PID.TID 0000.0001)  DIAGNOSTICS_READPARMS: active diagnostics summary:
(PID.TID 0000.0001) -----------------------------------------------------
(PID.TID 0000.0001) Creating Output Stream: diags/surface
(PID.TID 0000.0001) Output Frequency:       3600.000000 ; Phase:           0.000000
(PID.TID 0000.0001)  Averaging Freq.:       3600.000000 , Phase:           0.000000 , Cycle:   1
(PID.TID 0000.0001)  missing value: -9.990000000000E+02
(PID.TID 0000.0001)  Levels:    will be set later
(PID.TID 0000.0001)  Fields:    ETAN     oceTAUX  oceTAUY  EXFuwind EXFvwind
(PID.TID 0000.0001) Creating Output Stream: diags/interior
(PID.TID 0000.0001) Output Frequency:       3600.000000 ; Phase:           0.000000
(PID.TID 0000.0001)  Averaging Freq.:       3600.000000 , Phase:           0.000000 , Cycle:   1
(PID.TID 0000.0001)  missing value: -9.990000000000E+02
(PID.TID 0000.0001)  Levels:    will be set later
(PID.TID 0000.0001)  Fields:    THETA    SALT     UVEL     VVEL     WVEL
(PID.TID 0000.0001) -----------------------------------------------------
(PID.TID 0000.0001)  DIAGNOSTICS_READPARMS: statistics diags. summary:
(PID.TID 0000.0001) -----------------------------------------------------
(PID.TID 0000.0001) 
(PID.TID 0000.0001) SET_PARMS: done
(PID.TID 0000.0001) Enter INI_VERTICAL_GRID: setInterFDr=    T ; setCenterDr=    F
(PID.TID 0000.0001) tile:   1 ; Read from file tile001.mitgrid
(PID.TID 0000.0001)   => xC yC dxF dyF rA xG yG dxV dyU rAz dxC dyC rAw rAs dxG dyG
(PID.TID 0000.0001) %MON XC_max                       =  -4.2708333333333E+00
(PID.TID 0000.0001) %MON XC_min                       =  -8.2979166666667E+01
(PID.TID 0000.0001) %MON XC_mean                      =  -4.3656779661017E+01
(PID.TID 0000.0001) %MON XC_sd                        =   2.1416784662794E+01
(PID.TID 0000.0001) %MON XG_max                       =  -4.2916666666667E+00
(PID.TID 0000.0001) %MON XG_min                       =  -8.3000000000000E+01
(PID.TID 0000.0001) %MON XG_mean                      =  -4.3677612994350E+01
(PID.TID 0000.0001) %MON XG_sd                        =   2.1416784662794E+01
(PID.TID 0000.0001) %MON DXC_max                      =   4.1396407771681E+03
(PID.TID 0000.0001) %MON DXC_min                      =   3.1250655537105E+03
(PID.TID 0000.0001) %MON DXC_mean                     =   3.6037673106849E+03
(PID.TID 0000.0001) %MON DXC_sd                       =   2.4914041926297E+02
(PID.TID 0000.0001) %MON DXF_max                      =   4.1396407771687E+03
(PID.TID 0000.0001) %MON DXF_min                      =   3.1257281057051E+03
(PID.TID 0000.0001) %MON DXF_mean                     =   3.6041299665782E+03
(PID.TID 0000.0001) %MON DXF_sd                       =   2.4895595026445E+02
(PID.TID 0000.0001) %MON DXG_max                      =   4.1402617068725E+03
(PID.TID 0000.0001) %MON DXG_min                      =   3.1257281057058E+03
(PID.TID 0000.0001) %MON DXG_mean                     =   3.6044367253935E+03
(PID.TID 0000.0001) %MON DXG_sd                       =   2.4913620976209E+02
(PID.TID 0000.0001) %MON DXV_max                      =   4.1402617068725E+03
(PID.TID 0000.0001) %MON DXV_min                      =   3.1250655537105E+03
(PID.TID 0000.0001) %MON DXV_mean                     =   3.6040740695002E+03
(PID.TID 0000.0001) %MON DXV_sd                       =   2.4932099159289E+02
(PID.TID 0000.0001) %MON YC_max                       =   4.3512572127093E+01
(PID.TID 0000.0001) %MON YC_min                       =   2.6667172344766E+01
(PID.TID 0000.0001) %MON YC_mean                      =   3.5202184999450E+01
(PID.TID 0000.0001) %MON YC_sd                        =   4.8166811048475E+00
(PID.TID 0000.0001) %MON YG_max                       =   4.3526628017801E+01
(PID.TID 0000.0001) %MON YG_min                       =   2.6650055290879E+01
(PID.TID 0000.0001) %MON YG_mean                      =   3.5204597649593E+01
(PID.TID 0000.0001) %MON YG_sd                        =   4.8161011946804E+00
(PID.TID 0000.0001) %MON DYC_max                      =   4.1396407771681E+03
(PID.TID 0000.0001) %MON DYC_min                      =   3.1263906594436E+03
(PID.TID 0000.0001) %MON DYC_mean                     =   3.6495104045127E+03
(PID.TID 0000.0001) %MON DYC_sd                       =   2.5947805112709E+02
(PID.TID 0000.0001) %MON DYF_max                      =   4.1396407771687E+03
(PID.TID 0000.0001) %MON DYF_min                      =   3.1257281057065E+03
(PID.TID 0000.0001) %MON DYF_mean                     =   3.6492429901036E+03
(PID.TID 0000.0001) %MON DYF_sd                       =   2.5966646178032E+02
(PID.TID 0000.0001) %MON DYG_max                      =   4.1390195697792E+03
(PID.TID 0000.0001) %MON DYG_min                      =   3.1257281057058E+03
(PID.TID 0000.0001) %MON DYG_mean                     =   3.6488274159552E+03
(PID.TID 0000.0001) %MON DYG_sd                       =   2.5948422250146E+02
(PID.TID 0000.0001) %MON DYU_max                      =   4.1390195697805E+03
(PID.TID 0000.0001) %MON DYU_min                      =   3.1263906594436E+03
(PID.TID 0000.0001) %MON DYU_mean                     =   3.6490948303644E+03
(PID.TID 0000.0001) %MON DYU_sd                       =   2.5929610801441E+02
(PID.TID 0000.0001) %MON RA_max                       =   1.5754564649722E+07
(PID.TID 0000.0001) %MON RA_min                       =   1.0500948212213E+07
(PID.TID 0000.0001) %MON RA_mean                      =   1.3175496851859E+07
(PID.TID 0000.0001) %MON RA_sd                        =   1.5117950743597E+06
(PID.TID 0000.0001) %MON RAW_max                      =   1.5754564640712E+07
(PID.TID 0000.0001) %MON RAW_min                      =   1.0496276813784E+07
(PID.TID 0000.0001) %MON RAW_mean                     =   1.3172687163218E+07
(PID.TID 0000.0001) %MON RAW_sd                       =   1.5117190300960E+06
(PID.TID 0000.0001) %MON RAS_max                      =   1.5759254554448E+07
(PID.TID 0000.0001) %MON RAS_min                      =   1.0500948221223E+07
(PID.TID 0000.0001) %MON RAS_mean                     =   1.3177563200865E+07
(PID.TID 0000.0001) %MON RAS_sd                       =   1.5117312562591E+06
(PID.TID 0000.0001) %MON RAZ_max                      =   1.5759254554448E+07
(PID.TID 0000.0001) %MON RAZ_min                      =   1.0496276849823E+07
(PID.TID 0000.0001) %MON RAZ_mean                     =   1.3174753512224E+07
(PID.TID 0000.0001) %MON RAZ_sd                       =   1.5116590494693E+06
(PID.TID 0000.0001) %MON AngleCS_max                  =   1.0000000000000E+00
(PID.TID 0000.0001) %MON AngleCS_min                  =  -6.9859794131994E-13
(PID.TID 0000.0001) %MON AngleCS_mean                 =   4.2372881355932E-01
(PID.TID 0000.0001) %MON AngleCS_sd                   =   4.9414846566485E-01
(PID.TID 0000.0001) %MON AngleSN_max                  =   6.9859794131994E-13
(PID.TID 0000.0001) %MON AngleSN_min                  =  -1.0000000000000E+00
(PID.TID 0000.0001) %MON AngleSN_mean                 =  -5.7627118644068E-01
(PID.TID 0000.0001) %MON AngleSN_sd                   =   4.9414846566487E-01
(PID.TID 0000.0001)  MDS_READ_FIELD: opening global file: bathy.bin
(PID.TID 0000.0001) // =======================================================
(PID.TID 0000.0001) // Field Model R_low (ini_masks_etc)
(PID.TID 0000.0001) // CMIN =         -5.853495605468750E+03
(PID.TID 0000.0001) // CMAX =         -3.155474000000000E+03
(PID.TID 0000.0001) // CINT =          9.992672612847224E+01
(PID.TID 0000.0001) // SYMBOLS (CMIN->CMAX): -abcdefghijklmnopqrstuvwxyz+
(PID.TID 0000.0001) //                  0.0: .
(PID.TID 0000.0001) // RANGE I (Lo:Hi:Step):(    -7:    98:     1)
(PID.TID 0000.0001) // RANGE J (Lo:Hi:Step):(    98:    -7:    -1)
(PID.TID 0000.0001) // RANGE K (Lo:Hi:Step):(   1:   1:   1)
(PID.TID 0000.0001) // =======================================================
(PID.TID 0000.0001) K =   1
(PID.TID 0000.0001) //                I=2       I=12      I=22      I=32      I=42      I=52      I=62      I=72      I=82      I=92
(PID.TID 0000.0001) // |--J--|765432101|345678901|345678901|345678901|345678901|345678901|345678901|345678901|345678901|345678901|345678
(PID.TID 0000.0001) //     98 qrrssuvvutuuvvwwwwwx+yxwxxyxvtsssrppqsssssqqqqttrppqoprrqrtuusmkmppprqomlmmlmonljkkkjjiijjhhilnokklkkkllll
(PID.TID 0000.0001) //     97 oppqrtttsstttuvvvvwyyvwxyxyxvuuuutrsvwutuurqqrtsnmpupqssqrtvvqljlonnqqomlmmlmnnmlkkjkkjiiihhikmnlllkkklmmm
(PID.TID 0000.0001) //     96 nnooprrqppsstuvuuuvwwtuwyxxxvuvwwusuwwutuurqqsrpllpvoqsqopruwpjjkomlqpnlloomlmmmnmkkkmljihhhijlllmnljkmnmm
(PID.TID 0000.0001) //     95 onnnoooonopqsttttttuuttuwxwvuuvwwvuuutsstsrqpqpomnprppqnmnoquojjknlkonllmppnllllnolllmnkihhhiikjkmoljkmqnl
(PID.TID 0000.0001) //     94 pnnnnnnnnnoostsrsssststtvxwuttuvvuttsrrrrqpopponmnppnmmlklmmomkkklllmlklmnonljjknomonnmjhihhikkjjmnljklonl
(PID.TID 0000.0001) //     93 sppponnnnnnoqrqqsssrtsttvvuttttuutsrqppqqpoooonmmnpomlkjjlllmmllllllllkmmmnnljijmmloonjhiihijklkkllkjkkmml
(PID.TID 0000.0001) //     92 vttsqonnnnnnppopqssqsststtssttsttsqpooopqpooonnllmpolkkjjlmlmmmlkkllljjmmmnnmkiiikklnmihjkijlmmlkkkihklllj
(PID.TID 0000.0001) //     91 yxwvtqponnnnnnnoooqprssrrsrrssrtrqooonnpqppoonnlklpmkllkkkllmmmllkllljijklmmmljiikkjkjhijlkkmnnmlkjggjlmki
(PID.TID 0000.0001) //     90 zzyxusrrppponnnnnnoopqrqqqpqrrrtponoonoqrponnnnkjlnkkmmmklllmmnnnlllmljijklmmmlkmllkjjiiijklnonnkjjhhknoki
(PID.TID 0000.0001) //     89 yyyywuuutsspnnnnnnnnnopoooopqqqronoopoopqpononmkklmklnnmlllllmmnpmmmnmlkjjkllmmkmllkjjjiiijkmnmnliihjmpqlj
(PID.TID 0000.0001) //     88 xxxxwvvwvuvrooppponnnoonnmnooopponoopqqpoonpqmmllmlkmmmllllkkllmnnonnnmmjjjkllkjlkkkkjkjiiijklklmjjjloqqnl
(PID.TID 0000.0001) //     87 xwwwwwwxwuwtrrsttpnnooonmmnnnnnnnnooqsronmlqqnnnnmlkmnnmllkkkkkkmnnponnljjjkmlhijjkllkkjihiijjjjlkklnpqpom
(PID.TID 0000.0001) //     86 wvwvvwxyuuvvuuvwwsqqrqponnoonnnooooprsqnpnlopoooomlmoqrpmllkklkmpmjpnmomjlllpnjjjjlmmlkjiiiiijkkkkklnpqpon
(PID.TID 0000.0001) //     85 uvvuuvwwuuvvwxyxxvvuutsrrpqpppppppppqpmlromnpppponmnqssqnlkjkmklnljpllnlimlkqqokijklnmkjiiijjjkkkkkkmoppoo
(PID.TID 0000.0001) //     84 tutsstuuttuvwxyxxxwwwvttutrrrssrqpoppollplmnopponnnorstqnlkjjmmljijmlllkikkilpqkhjjjnlkiiijjljjklkjjlnoooo
(PID.TID 0000.0001) //     83 qssrqrrrrstuvwxwxwvvwvuuutrstuutrpoopnmlollnnnnnmmnpqrsqnljjjknlihhjllkjhhkkimojhiijmjiiijjjljilmkjjlmnnnn
(PID.TID 0000.0001) //     82 oqpopqqppqrsstvvvvvvvvuttsruuvvuponorqonnnoonmmlllmpppponliijlpkhijjlmkihhijimnjiiikkiijjklkjjjnnkiimnonmn
(PID.TID 0000.0001) //     81 ooooopqoopqqqrttuuuvttsrtssttvwvoomqwuqoprsqmlmkkllpomllnljjmoojjjmlmmkjjihlmnokijjllkkllmmmklknmkijoponmn
(PID.TID 0000.0001) //     80 nnnnooonnoooprsrssttrrqprrrsstuuonmrwvtrsuusnllkkllonlklnmllnoomlkmmmmllonknoonkijkmmmnnnopoopmmmkjkpqommo
(PID.TID 0000.0001) //     79 onnnnnnnnnnnnqrpqppppqpopppqrstspmnptttttttrpmjjkllmmmlmnnnnmoponllmlllmqpononnkiklnopqnnoqqqrnmlkkloqonmn
(PID.TID 0000.0001) //     78 qqonnnnnnmmlmnonnnmonpponnopqrrqpnmnqrrrrrqpomjjkklmmmlmnnnnmoponlkkkllmoomnnmmkjkmnpqronmmnoonnmkklnoonmm
(PID.TID 0000.0001) //     77 sronnonnnnnmmmmmmllmoponmlmnoppponmmnoppponnmljklkkllllmmmmomoponllmnoomnnmnmmljjkmopqqonmllllnnmlklnooonm
(PID.TID 0000.0001) //     76 onnoppppppppoonnllmnsrqnmllmnnoponmmmmmmmmmmmkjlmkkkkllmmlkmnoponmmnpsspooonmmljikmopqponmmllmnnmlllnooonm
(PID.TID 0000.0001) //     75 mlmopqrqqsrrsrqqonruxvrpommmmmnoonnnmllllllllkjklkjjkklmmkikmooooonmnssqpponmmliiknoqqponmmmmmmlmlllnonnml
(PID.TID 0000.0001) //     74 llmoooponsrsutstsquxwvtssnnoonmnoooonmllkllllkkklkjjkkkkkkjkmnooooommoqqpponmmmiiknpqqpponnmmmkkllllmnmlkj
(PID.TID 0000.0001) //     73 mnoonmmllopqssqssqsvtuuwuopqspnppppponnmlmmlllkkkkkkkkkkijjlmnnnnonmmmoppponnmljjknpqqqponmmlkjjklkjlljjih
(PID.TID 0000.0001) //     72 pqqnnljjjllmnnnoonpqqsuuroqsvrsurpqqpopommmllllkkkklmmlkiijlmmmmnnnmmnoppponnlimljlnprqpnmllkihijkkjjihhhg
(PID.TID 0000.0001) //     71 rrpmligghiihijklkklmnopponprtrsusqqqonqqnmnllllkjklmonkjiikmnmllmnnnmnoopppookhllkkloqpnlkjjjhghijkjhggggh
(PID.TID 0000.0001) //     70 rqomljgfhihghjkljjiikllllklnrqqrrrqpomoqpprolllkjlllmmljkjlmnmkklmmmnnonnooppkhikkjilnmljhhhhggggjjihggghi
(PID.TID 0000.0001) //     69 rqponlkjkljikmnnmkjiiiiiiiiimnnopponnmnoqqspkijklklkkmmmllllnmjiklllmnmllmnooifghihhhijihfeffeefeijjihggij
(PID.TID 0000.0001) //     68 rqqqpoonopnmnqrrpnmlkjhhihggijklmmmllklmnmllgfhjmkkkjllllkkjmmigijjjjkjiikllkedfffgfffggfeeedcddeikkkihhjk
(PID.TID 0000.0001) //     67 qqqqqqrspqpoprssrqpomkjjklihiijkkkkkkjkkkjhgedfikhhjhlkihhhgjjgfhhhhggffgiihfccddddddfggfffgfdefgkmmlkiijl
(PID.TID 0000.0001) //     66 pqppppqqmoonnpqrrqpommlmnpnkkkkkjjjkkkkkkjigfefhgeghgihfddddeeddffefddddfigecbcccccdefghghijiegiknonnljijk
(PID.TID 0000.0001) //     65 pponnnonlmmlklnpqpomlmnnoqpnnnnmkkklmlllmmmliiikigjhggfedddedcdeddddddddgihdccceedeefhiijkmmkijloppoomjjjk
(PID.TID 0000.0001) //     64 oonmlmnlkkjjiikmnomkkmopnopooppomlmnnnnnoppnllmomkkigfghhiijiefgedeffhghjkkhhgfjighhiikklnooomloqrqnnmkkkl
(PID.TID 0000.0001) //     63 nnmlklmljjihhhikmmljkmoqoooopqrqponooooopqpnmnoqnlkkihikmmmmkiiigfghhjikponmmmlnmjkkklnnopqqqonpqrpmmllllm
(PID.TID 0000.0001) //     62 nnmlkklkkjihhhijlllkkmnqpnnnoqssrqpppqqpopollppomllljjknonmmkkkkihhhjjkmqpmoopppommnooqqqqqrrpnommlllmmmmm
(PID.TID 0000.0001) //     61 nnmllllkkkjihiijkllkmnnoonnnoqrssrqpqrrpnnmlmrqommmmkklopomllllljjjjlmmmoomooqqrqooprssrqppponnljijklmmmml
(PID.TID 0000.0001) //     60 nnmllllllkjiijkkklllnponnnnnoprssrpooqrpmllmorrpnmmmlllnpqpmllmlkklmnnnooonopqqrrpoprtsppomkjjnlkkjjknnmll
(PID.TID 0000.0001) //     59 onnmmmmllljiikllllllmponnnnnopqqqonmlopnlkkloqqommmmlllmoppnmmmmllmnnmnponnppppqrnmmnonjjgeddfmlkkjijmnmmk
(PID.TID 0000.0001) //     58 ooonnonmlljijklmlllllnnmmmmnopppnmlkjlnmkijlmnnmllllllllmoonmmmmlmnoommoomnnoonpqjhihfgd---aadmnlkjjknnnnk
(PID.TID 0000.0001) //     57 noooppppnmkjklmmmmmnmnnmmllmnoonlkjjjlmlkjjklllkkkllmlllmnonmmmlllmnolmoommmnnnnlddgdacbaaabdhnnnlklnmlmmj
(PID.TID 0000.0001) //     56 nnnopqrrpnmklmnnmmnoonnnmlllnnnmkijjklllljjkkkjjkllmmmllmnnnlllllklmnlmnnnnmmnlkhcfjdcdddddeglmmnkkklkklkj
(PID.TID 0000.0001) //     55 nnnnopqqqonmlmnnmmnoooonmlllmmmlkjjjkllllkkkjjjjklmmnnmllmmmlkkkkkklmllnonmmmmlkjilnihggggfffhkllkkkjklmjj
(PID.TID 0000.0001) //     54 nmmmnoopponmmmnmlmnoonnmmllklllmlkkkkllllkkkjjjkllmnnnmlllmlkkkjjjjklkkmonmlmnmllkmmkjjjiihgghkmmkjjjkmnkk
(PID.TID 0000.0001) //     53 nmmmnnnooonmmmmmllmnnnmlllkkkllmmlkkkllmlkkkkkkkklmnnnmllllllkkjiijklkjknmlkmmmlkjjjjjjjjjiiijknmljijkmnml
(PID.TID 0000.0001) //     52 nmmmnnmmnnmmmmmmllnonmkkkkkklllmllkkllmnnlkkkllkklmnnmmlkkkllllkjijkkkiilkkklkkjjihghiijjkjjjjjmmlkjjlnnml
(PID.TID 0000.0001) //     51 nnnnnnmmlmmmmnmlklnonmkjijkkllmllkkklmoqqnmllmmlllmnnmlkkkkllmlkkhhjjihhjkkjihhihhgffhhiijkkkiilnnkjjlnmlk
(PID.TID 0000.0001) //     50 ooooooonllmnnmmllmopomkiiijllmllkjjklmosspnmmmnnlkllmmlkkjkkmmkiigfhhgffijjihfghfgggghhhhikkmkikooljjklkji
(PID.TID 0000.0001) //     49 pppooppommnnnmmllmopomkjiiklmlllkjjkklnrrpomllmmkiiklmlkjjjklmkghgfggeeeghihgfffeghiiiiggikkolikpoljiihghi
(PID.TID 0000.0001) //     48 oppnnoonmmnnnmmlmnoonllmjjklllllkjjjjklopomkjjkkjgfhjlkjihikllkffffggfeefghhghiggijkkjighjllomjjonljhgfggh
(PID.TID 0000.0001) //     47 oponmlllmnnnmmlmmmnmlklnlkkkkkllkjiijjjkllkjhijjhedfhjjigghjjjhedeefgfeeegijjkljikmnmkihijlnnmjjllkihhhjii
(PID.TID 0000.0001) //     46 ppnmkjikmnnnmmllmmmlkjkmlkkjjkllkjhhhihiiiihghhhgdcdghhgggghihfdddfffffeehlnnnomjnppnkiijkknljijjjkihhjmji
(PID.TID 0000.0001) //     45 qpnljiikmnnnmmllllllkjkkkkkkjllkjjhffgffffgggfggfdcdeggghhgggfedhligfhgeejpqqorspqrqokiijjijgfgiggjjiillii
(PID.TID 0000.0001) //     44 qpnljjlmnnmommmlllmmklkjjllllnmjhjgefffffffgffgfffefffffkkihghfflqmjhjiggkqsrortqmmpniiijjhgeefggfilmlnkhi
(PID.TID 0000.0001) //     43 qomljkpppnlplmnjnkmmlmkjjklmmonjhihghhhhiihhhhihhhiihhhimmkklmiinqomllkkjlpqpooojghkifhikkihihgggfhlnmlkhh
(PID.TID 0000.0001) //     42 onlkkmqppnmpmmnkmkmmllkjjkklmnmjhhiijjklnlkjjkkkkllljjklonmmmnllnpponlknlkmlllkkdcdeddgilnlijjihfggjlkjjhh
(PID.TID 0000.0001) //     41 nlkjloooonnnmmmlmlmllkjjiijklmlkihijjlmnonmlmmmmmnnnmmmopmmmmmnnmmppnljlljjgfhhgbccbfhjklnnkjkjihigjkhhihh
(PID.TID 0000.0001) //     40 mjjiknlmmnpnllmnllklkjiiihhjkkkmkiijjmnmnonnnnmmnnoonmnnpllmmlnnkknnmljkkifcccddcffeiklllmnlmokkjigkjffihh
(PID.TID 0000.0001) //     39 mjjijlklkmomklmolkjlmihiihhjjijllijiiknnoonnnmllmmnonmmmlkkkllmljijjjjhiihedcdehgjjjkllllmnmpqlmkihjifegij
(PID.TID 0000.0001) //     38 mkjiijjkklmlklmnlkjlmihijiijkjlklijiklnnnonmmlkjkkmnnllljjjjjkkjhgggggefgghhhiikilmmlmmmmmllnmilkihhhgeekk
(PID.TID 0000.0001) //     37 mkjijjjjjjjjjkmmlkklljijjjjklmonljihkmmnnnmlkkjiiikmlkjjjiihhiigfefffgfghikmlkkklmnmmmmmmljijjgiihhhhgeeik
(PID.TID 0000.0001) //     36 lkjjjjjiiiihijllllllljjjjkkklmonmkihiklmmmlkkjjihhikjihhhggffggfffeghiijjkmonlklmnnmmmmmmkiggihhhgghiigdej
(PID.TID 0000.0001) //     35 lkjjjjjiiiihijlllllmlkjjjjjjkkmmlkjiijjklkkjjjjjjhhihgfffffeefghihhiklllkkmonlkklmmlllllljhffhhgggghjkheeh
(PID.TID 0000.0001) //     34 mljiijiiiijjjkllkklmlkjjjihhkjkkklkjihhjjjiiiihhhggggfeeeeeeffikkkjkmnnmkklnnmkijlmllkkkjihffhhfghhijkigfh
(PID.TID 0000.0001) //     33 nmkjiiiijkkkklllkkkllkjjjiggijihhlkjihgiijhgiihggfffghffffffghjmlmmlmnmljijmnnkhikllkjiiiihffghfghiijjhhgh
(PID.TID 0000.0001) //     32 omkjijjkkllllllkkkkkkjjjjihhiihfgijiiihiiiiilkhggeefhkihggghjkklnoommllkjhiklljiikkkjihgghiffgiggiiihgghhi
(PID.TID 0000.0001) //     31 nmlkkllllllkkkkkkkkkjiijkkjjkjigghhiijjjiijkmkhgkiihjllkighjmmmmnoomlkkjigghijiiijjihgfffghghijiiiihgedfij
(PID.TID 0000.0001) //     30 mlllmnmmlkkjjkkkkkkjiiiiiijklljhghhhgijjjklnkhhhkkmjlnonkghjnnnnnnnlkkkihfefggghgghhgfeeefggijjiihhhgfdfjk
(PID.TID 0000.0001) //     29 llllnpolkkjiijjkkkkjijjihhjkmmjhhhhhgjkjjmnokiijkknlnppqnihkoooonmlkkkjigddeeeffffffffffffgggghhhgggfgegkl
(PID.TID 0000.0001) //     28 llkllmnmkjiiiijkllkjjkmmkjjknnkihhghiklihkmmkjjjklmkmnpqmiilopoonljjjjjifdddeeeeeefgfefgggggffgggffggfgiln
(PID.TID 0000.0001) //     27 lkkkjjklkjjiiijkkkkjijkmljijkljjiggijjmkijkkjiijkkljknoolijkmnnmmkiiiiihedeeghfeffgigghhhhggfffffeegffgjkn
(PID.TID 0000.0001) //     26 kkkjihhjkkkjijjkkjjiihhjkkjjjjjkjhgkhilkjiihgffgijkiilmljiiiklmlljihhghhedgefihfhhghhhiiihgfedefeeeeefhjhg
(PID.TID 0000.0001) //     25 jklkjiijkkkjjjjjjjjighgikkjjiihjjigihjlkihgfeddeghhghjkjhiiiijkjjihhgfggddghghiijjghiiijjihfddffeffffgiiff
(PID.TID 0000.0001) //     24 jlmmllkkkkkjjiijiijkhhhjkjjjhgfhhhiihjlihhgfedddegffgiihgiiihhiihgggffffceghhhihkjhijiijjihfedefgggggghhfe
(PID.TID 0000.0001) //     23 ilmnnonkjjjjiiiiihhiihikkkkkggfhhijihklfghggggeddeeefhhggiihgghggeegeddddeggfhihkhfkmijkkjifeeefhhhhhihgfe
(PID.TID 0000.0001) //     22 hklmnnmkjjjiiiiihgeeggijjjkkhgghiihgfffeghhhjkhedeedeghgghhfdegfeccdccddefhikmllkhhlmkkkmijffdefhijhhhgeef
(PID.TID 0000.0001) //     21 giklllljjjiiiiiihfdegghhhijjhghjjigffeefghijkkifeedddeedeffdcdedcbbbccdefhikmllkjijlmllllhfeefighikhggedef
(PID.TID 0000.0001) //     20 ghijjiggijihhiihggffghhjjhiihghkihgffffghiiijjjhgfdcdecbbdcbbccccbbbcdefghijjjijiijlmmlkjgcdfghgfhkiffdfhg
(PID.TID 0000.0001) //     19 hhhiigegijihhjjiffhhhjhhihiigffiiggffgghiihhhijiihedhgdbbcbbdddcddcbcefhiiiggffgghikllkjhgddfggffjjhfffhjh
(PID.TID 0000.0001) //     18 hhhhhhiijjihiklkihkijkjhghjihgfgggghhhhhhhhhhhiiigddfgfeddddffffgggdeghjjjhfffffffhjjjihhfdeghgedeffffghhf
(PID.TID 0000.0001) //     17 ihhhhhiiiihhiklihhjgljjigijihhgggghjjihggghjjghhfdcdghihgghiigghkkmihijkkjighiihffgiihgfhgffhihecdfffggfec
(PID.TID 0000.0001) //     16 hhggggffghhhijiffhhhkijiiijiiihhhijkkjgfeffhihggedefhjllklnoljijnnonmkmljhihikkiffgggfedggghijjebdfffggfdb
(PID.TID 0000.0001) //     15 ihgggffeghhhilkiihiikiijjjiiijjiijllljgeeffgihhhggggjlnnmnqqnlkmoonoomoligggjmkifeeefeeeffghiijfeffffffedb
(PID.TID 0000.0001) //     14 ihhggfedfhghkkljgghiihijjjjjjkkjklmmmlgefghiiiijiiijlmnmmnqpnllmnonnonnljjgdilhheccceeffefeikghhhggffffffe
(PID.TID 0000.0001) //     13 hhhhhhgdgggfhijhfghhhhijjjjjkklllmllnojhhijjjijklllllmmkikmmlkkklmnnonnnkifdijhgdbbacdeedfdilghjjigffeefff
(PID.TID 0000.0001) //     12 ghhiiiigigfgghihhhhhhhijkkkkkllmmmkknnljjkkjjijklllkkkjgfhiiihhijklmnnnmjgeeggffcbcbceeccgfgifhjkieeeeefff
(PID.TID 0000.0001) //     11 fhgiijkifggggghhijihhijkllkkkkmmmljkmmlkkjjjiijkkkjiihgfffgfedefghikmnmkhedeecggbbcbcgfcffdgifghigcddffegf
(PID.TID 0000.0001) //     10 egggihihhhhhhhhhjjjiijkkllkjjilmlkjklllkjiijiiiiihgfffffeeeedbbceghijjjheccebbggaabbdghgeeehhegghdacdhifhf
(PID.TID 0000.0001) //      9 efghigfiiiiijihhijjiijkkkkkjjiklkjjjkkkjihijjiihgfedefggfffedb-abdefgfggdcceabdebbceghgfffffgfgggdbddffddd
(PID.TID 0000.0001) //      8 ffgijhghiihhijhhijjiiijjjjkkkjjkjjiiiiiihghijihfedddefghhggffc--aabcedffeeedccefddefihedfffeefghgecdddca-c
(PID.TID 0000.0001) //      7 ..........................................................................................................
(PID.TID 0000.0001) //      6 ..........................................................................................................
(PID.TID 0000.0001) //      5 ..........................................................................................................
(PID.TID 0000.0001) //      4 ..........................................................................................................
(PID.TID 0000.0001) //      3 ..........................................................................................................
(PID.TID 0000.0001) //      2 ..........................................................................................................
(PID.TID 0000.0001) //      1 ..........................................................................................................
(PID.TID 0000.0001) //      0 ..........................................................................................................
(PID.TID 0000.0001) //     -1 ..........................................................................................................
(PID.TID 0000.0001) //     -2 ..........................................................................................................
(PID.TID 0000.0001) //     -3 ..........................................................................................................
(PID.TID 0000.0001) //     -4 ..........................................................................................................
(PID.TID 0000.0001) //     -5 ..........................................................................................................
(PID.TID 0000.0001) //     -6 ..........................................................................................................
(PID.TID 0000.0001) //     -7 ..........................................................................................................
(PID.TID 0000.0001) // =======================================================
(PID.TID 0000.0001) // END OF FIELD                                          =
(PID.TID 0000.0001) // =======================================================
(PID.TID 0000.0001) 
(PID.TID 0000.0001) // =======================================================
(PID.TID 0000.0001) // Field Model Ro_surf (ini_masks_etc)
(PID.TID 0000.0001) // CMIN =          1.000000000000000E+32
(PID.TID 0000.0001) // CMAX =         -1.000000000000000E+32
(PID.TID 0000.0001) // CINT =          0.000000000000000E+00
(PID.TID 0000.0001) // SYMBOLS (CMIN->CMAX): -abcdefghijklmnopqrstuvwxyz+
(PID.TID 0000.0001) //                  0.0: .
(PID.TID 0000.0001) // RANGE I (Lo:Hi:Step):(    -7:    98:     1)
(PID.TID 0000.0001) // RANGE J (Lo:Hi:Step):(    98:    -7:    -1)
(PID.TID 0000.0001) // RANGE K (Lo:Hi:Step):(   1:   1:   1)
(PID.TID 0000.0001) // =======================================================
(PID.TID 0000.0001) // =======================================================
(PID.TID 0000.0001) // END OF FIELD                                          =
(PID.TID 0000.0001) // =======================================================
(PID.TID 0000.0001) 
(PID.TID 0000.0001) // =======================================================
(PID.TID 0000.0001) // Field hFacC at iteration          0
(PID.TID 0000.0001) // CMIN =          1.000000000000000E+00
(PID.TID 0000.0001) // CMAX =          1.000000000000000E+00
(PID.TID 0000.0001) // CINT =          0.000000000000000E+00
(PID.TID 0000.0001) // SYMBOLS (CMIN->CMAX): -abcdefghijklmnopqrstuvwxyz+
(PID.TID 0000.0001) //                  0.0: .
(PID.TID 0000.0001) // RANGE I (Lo:Hi:Step):(    -7:    98:     1)
(PID.TID 0000.0001) // RANGE J (Lo:Hi:Step):(    98:    -7:    -1)
(PID.TID 0000.0001) // RANGE K (Lo:Hi:Step):(   1:   1:   1)
(PID.TID 0000.0001) // =======================================================
(PID.TID 0000.0001) // =======================================================
(PID.TID 0000.0001) // END OF FIELD                                          =
(PID.TID 0000.0001) // =======================================================
(PID.TID 0000.0001) 
(PID.TID 0000.0001) // =======================================================
(PID.TID 0000.0001) // Field hFacW at iteration          0
(PID.TID 0000.0001) // CMIN =          1.000000000000000E+00
(PID.TID 0000.0001) // CMAX =          1.000000000000000E+00
(PID.TID 0000.0001) // CINT =          0.000000000000000E+00
(PID.TID 0000.0001) // SYMBOLS (CMIN->CMAX): -abcdefghijklmnopqrstuvwxyz+
(PID.TID 0000.0001) //                  0.0: .
(PID.TID 0000.0001) // RANGE I (Lo:Hi:Step):(    -7:    98:     1)
(PID.TID 0000.0001) // RANGE J (Lo:Hi:Step):(    98:    -7:    -1)
(PID.TID 0000.0001) // RANGE K (Lo:Hi:Step):(   1:   1:   1)
(PID.TID 0000.0001) // =======================================================
(PID.TID 0000.0001) // =======================================================
(PID.TID 0000.0001) // END OF FIELD                                          =
(PID.TID 0000.0001) // =======================================================
(PID.TID 0000.0001) 
(PID.TID 0000.0001) // =======================================================
(PID.TID 0000.0001) // Field hFacS at iteration          0
(PID.TID 0000.0001) // CMIN =          1.000000000000000E+00
(PID.TID 0000.0001) // CMAX =          1.000000000000000E+00
(PID.TID 0000.0001) // CINT =          0.000000000000000E+00
(PID.TID 0000.0001) // SYMBOLS (CMIN->CMAX): -abcdefghijklmnopqrstuvwxyz+
(PID.TID 0000.0001) //                  0.0: .
(PID.TID 0000.0001) // RANGE I (Lo:Hi:Step):(    -7:    98:     1)
(PID.TID 0000.0001) // RANGE J (Lo:Hi:Step):(    98:    -7:    -1)
(PID.TID 0000.0001) // RANGE K (Lo:Hi:Step):(   1:   1:   1)
(PID.TID 0000.0001) // =======================================================
(PID.TID 0000.0001) // =======================================================
(PID.TID 0000.0001) // END OF FIELD                                          =
(PID.TID 0000.0001) // =======================================================
(PID.TID 0000.0001) 
(PID.TID 0000.0001) 
(PID.TID 0000.0001) // =======================================================
(PID.TID 0000.0001) // Calendar configuration >>> START <<<
(PID.TID 0000.0001) // =======================================================
(PID.TID 0000.0001) 
(PID.TID 0000.0001) modelstart = /* Start time of the model integration [s] */
(PID.TID 0000.0001)                 0.000000000000000E+00
(PID.TID 0000.0001)     ;
(PID.TID 0000.0001) modelend  = /* End time of the model integration [s] */
(PID.TID 0000.0001)                 3.600000000000000E+03
(PID.TID 0000.0001)     ;
(PID.TID 0000.0001) modelStep = /* Time interval for a model forward step [s] */
(PID.TID 0000.0001)                 2.400000000000000E+02
(PID.TID 0000.0001)     ;
(PID.TID 0000.0001) usingGregorianCalendar= /* Calendar Type: Gregorian Calendar */
(PID.TID 0000.0001)                   T
(PID.TID 0000.0001)     ;
(PID.TID 0000.0001) usingJulianCalendar = /* Calendar Type: Julian Calendar */
(PID.TID 0000.0001)                   F
(PID.TID 0000.0001)     ;
(PID.TID 0000.0001) usingNoLeapYearCal  = /* Calendar Type: without Leap Year */
(PID.TID 0000.0001)                   F
(PID.TID 0000.0001)     ;
(PID.TID 0000.0001) usingModelCalendar  = /* Calendar Type: Model Calendar */
(PID.TID 0000.0001)                   F
(PID.TID 0000.0001)     ;
(PID.TID 0000.0001) modelStartDate YYYYMMDD = /* Model start date YYYY-MM-DD */
(PID.TID 0000.0001)                20030101
(PID.TID 0000.0001)     ;
(PID.TID 0000.0001)   modelStartDate HHMMSS = /* Model start date HH-MM-SS  */
(PID.TID 0000.0001)                       0
(PID.TID 0000.0001)     ;
(PID.TID 0000.0001) modelEndDate   YYYYMMDD = /* Model end date YYYY-MM-DD */
(PID.TID 0000.0001)                20030101
(PID.TID 0000.0001)     ;
(PID.TID 0000.0001)   modelEndDate   HHMMSS = /* Model end date HH-MM-SS  */
(PID.TID 0000.0001)                   10000
(PID.TID 0000.0001)     ;
(PID.TID 0000.0001) intyears = /* Number of calendar years affected by the integration */
(PID.TID 0000.0001)                       1
(PID.TID 0000.0001)     ;
(PID.TID 0000.0001) intmonths= /* Number of calendar months affected by the integration */
(PID.TID 0000.0001)                       1
(PID.TID 0000.0001)     ;
(PID.TID 0000.0001) intdays = /* Number of calendar days affected by the integration */
(PID.TID 0000.0001)                       1
(PID.TID 0000.0001)     ;
(PID.TID 0000.0001) modelIter0 = /* Base timestep number  */
(PID.TID 0000.0001)                       0
(PID.TID 0000.0001)     ;
(PID.TID 0000.0001) modelIterEnd = /* Final timestep number  */
(PID.TID 0000.0001)                      15
(PID.TID 0000.0001)     ;
(PID.TID 0000.0001) modelIntSteps= /* Number of model timesteps  */
(PID.TID 0000.0001)                      15
(PID.TID 0000.0001)     ;
(PID.TID 0000.0001) 
(PID.TID 0000.0001) // =======================================================
(PID.TID 0000.0001) // Calendar configuration  >>> END <<<
(PID.TID 0000.0001) // =======================================================
(PID.TID 0000.0001) 
(PID.TID 0000.0001) GAD_INIT_FIXED: GAD_OlMinSize=  4  0  2
(PID.TID 0000.0001) 
(PID.TID 0000.0001) // ===================================
(PID.TID 0000.0001) // GAD parameters :
(PID.TID 0000.0001) // ===================================
(PID.TID 0000.0001) tempAdvScheme =   /* Temp. Horiz.Advection scheme selector */
(PID.TID 0000.0001)                       7
(PID.TID 0000.0001)     ;
(PID.TID 0000.0001) tempVertAdvScheme =   /* Temp. Vert. Advection scheme selector */
(PID.TID 0000.0001)                       7
(PID.TID 0000.0001)     ;
(PID.TID 0000.0001) tempMultiDimAdvec =   /* use Muti-Dim Advec method for Temp */
(PID.TID 0000.0001)                   T
(PID.TID 0000.0001)     ;
(PID.TID 0000.0001) tempSOM_Advection = /* use 2nd Order Moment Advection for Temp */
(PID.TID 0000.0001)                   F
(PID.TID 0000.0001)     ;
(PID.TID 0000.0001) AdamsBashforthGt = /* apply Adams-Bashforth extrapolation on Gt */
(PID.TID 0000.0001)                   F
(PID.TID 0000.0001)     ;
(PID.TID 0000.0001) AdamsBashforth_T = /* apply Adams-Bashforth extrapolation on Temp */
(PID.TID 0000.0001)                   F
(PID.TID 0000.0001)     ;
(PID.TID 0000.0001) saltAdvScheme =   /* Salt. Horiz.advection scheme selector */
(PID.TID 0000.0001)                       7
(PID.TID 0000.0001)     ;
(PID.TID 0000.0001) saltVertAdvScheme =   /* Salt. Vert. Advection scheme selector */
(PID.TID 0000.0001)                       7
(PID.TID 0000.0001)     ;
(PID.TID 0000.0001) saltMultiDimAdvec =   /* use Muti-Dim Advec method for Salt */
(PID.TID 0000.0001)                   T
(PID.TID 0000.0001)     ;
(PID.TID 0000.0001) saltSOM_Advection = /* use 2nd Order Moment Advection for Salt */
(PID.TID 0000.0001)                   F
(PID.TID 0000.0001)     ;
(PID.TID 0000.0001) AdamsBashforthGs = /* apply Adams-Bashforth extrapolation on Gs */
(PID.TID 0000.0001)                   F
(PID.TID 0000.0001)     ;
(PID.TID 0000.0001) AdamsBashforth_S = /* apply Adams-Bashforth extrapolation on Salt */
(PID.TID 0000.0001)                   F
(PID.TID 0000.0001)     ;
(PID.TID 0000.0001) // ===================================
(PID.TID 0000.0001) OBCS_INIT_FIXED: Setting OB indices in Overlap
(PID.TID 0000.0001)  Sets OBS(i,bi,bj=   -7,  1,  1)=    8
(PID.TID 0000.0001)  Sets OBS(i,bi,bj=   -6,  1,  1)=    8
(PID.TID 0000.0001)  Sets OBS(i,bi,bj=   -5,  1,  1)=    8
(PID.TID 0000.0001)  Sets OBS(i,bi,bj=   -4,  1,  1)=    8
(PID.TID 0000.0001)  Sets OBS(i,bi,bj=   -3,  1,  1)=    8
(PID.TID 0000.0001)  Sets OBS(i,bi,bj=   -2,  1,  1)=    8
(PID.TID 0000.0001)  Sets OBS(i,bi,bj=   -1,  1,  1)=    8
(PID.TID 0000.0001)  Sets OBS(i,bi,bj=    0,  1,  1)=    8
(PID.TID 0000.0001)  Sets OBS(i,bi,bj=   91,  1,  1)=    8
(PID.TID 0000.0001)  Sets OBS(i,bi,bj=   92,  1,  1)=    8
(PID.TID 0000.0001)  Sets OBS(i,bi,bj=   93,  1,  1)=    8
(PID.TID 0000.0001)  Sets OBS(i,bi,bj=   94,  1,  1)=    8
(PID.TID 0000.0001)  Sets OBS(i,bi,bj=   95,  1,  1)=    8
(PID.TID 0000.0001)  Sets OBS(i,bi,bj=   96,  1,  1)=    8
(PID.TID 0000.0001)  Sets OBS(i,bi,bj=   97,  1,  1)=    8
(PID.TID 0000.0001)  Sets OBS(i,bi,bj=   98,  1,  1)=    8
(PID.TID 0000.0001) OBCS_INIT_FIXED: Setting OB indices in Overlap <= done
(PID.TID 0000.0001) 
(PID.TID 0000.0001) // =======================================================
(PID.TID 0000.0001) // External forcing (EXF) configuration >>> START <<<
(PID.TID 0000.0001) // =======================================================
(PID.TID 0000.0001) 
(PID.TID 0000.0001)  EXF general parameters:
(PID.TID 0000.0001) 
(PID.TID 0000.0001) exf_iprec = /* exf file precision */
(PID.TID 0000.0001)                      32
(PID.TID 0000.0001)     ;
(PID.TID 0000.0001) useExfYearlyFields = /* add extension _YEAR to input file names */
(PID.TID 0000.0001)                   T
(PID.TID 0000.0001)     ;
(PID.TID 0000.0001) twoDigitYear = /* use 2-digit year extension */
(PID.TID 0000.0001)                   F
(PID.TID 0000.0001)     ;
(PID.TID 0000.0001) useExfCheckRange = /* check for fields range */
(PID.TID 0000.0001)                   F
(PID.TID 0000.0001)     ;
(PID.TID 0000.0001) exf_output_interp = /* output directly interpolation result */
(PID.TID 0000.0001)                   F
(PID.TID 0000.0001)     ;
(PID.TID 0000.0001) exf_debugLev = /* select EXF-debug printing level */
(PID.TID 0000.0001)                       2
(PID.TID 0000.0001)     ;
(PID.TID 0000.0001) exf_monFreq  = /* EXF monitor frequency [ s ] */
(PID.TID 0000.0001)                 2.400000000000000E+02
(PID.TID 0000.0001)     ;
(PID.TID 0000.0001) repeatPeriod = /* period for cycling forcing dataset [ s ] */
(PID.TID 0000.0001)                 0.000000000000000E+00
(PID.TID 0000.0001)     ;
(PID.TID 0000.0001) climTempFreeze= /* Minimum climatological temperature [deg.C] */
(PID.TID 0000.0001)                -1.900000000000000E+00
(PID.TID 0000.0001)     ;
(PID.TID 0000.0001) windStressMax = /* Maximum absolute windstress [ Pa ] */
(PID.TID 0000.0001)                 2.000000000000000E+00
(PID.TID 0000.0001)     ;
(PID.TID 0000.0001) stressIsOnCgrid = /* set u,v_stress on Arakawa C-grid */
(PID.TID 0000.0001)                   F
(PID.TID 0000.0001)     ;
(PID.TID 0000.0001) rotateStressOnAgrid = /* rotate u,v_stress on Arakawa A-grid */
(PID.TID 0000.0001)                   F
(PID.TID 0000.0001)     ;
(PID.TID 0000.0001) cen2kel = /* conversion of deg. Centigrade to Kelvin [K] */
(PID.TID 0000.0001)                 2.731500000000000E+02
(PID.TID 0000.0001)     ;
(PID.TID 0000.0001) gravity_mks= /* gravitational acceleration [m/s^2] */
(PID.TID 0000.0001)                 9.810000000000000E+00
(PID.TID 0000.0001)     ;
(PID.TID 0000.0001) atmrho =  /* mean atmospheric density [kg/m^3] */
(PID.TID 0000.0001)                 1.200000000000000E+00
(PID.TID 0000.0001)     ;
(PID.TID 0000.0001) atmcp =  /* mean atmospheric specific heat [J/kg/K] */
(PID.TID 0000.0001)                 1.005000000000000E+03
(PID.TID 0000.0001)     ;
(PID.TID 0000.0001) flamb =  /* latent heat of evaporation [J/kg] */
(PID.TID 0000.0001)                 2.500000000000000E+06
(PID.TID 0000.0001)     ;
(PID.TID 0000.0001) flami =  /* latent heat of pure-ice melting [J/kg] */
(PID.TID 0000.0001)                 3.340000000000000E+05
(PID.TID 0000.0001)     ;
(PID.TID 0000.0001) cvapor_fac = /* const. for Saturation calculation [?] */
(PID.TID 0000.0001)                 6.403800000000000E+05
(PID.TID 0000.0001)     ;
(PID.TID 0000.0001) cvapor_exp = /* const. for Saturation calculation [?] */
(PID.TID 0000.0001)                 5.107400000000000E+03
(PID.TID 0000.0001)     ;
(PID.TID 0000.0001) cvapor_fac_ice= /* const. for Saturation calculation [?] */
(PID.TID 0000.0001)                 1.163780000000000E+07
(PID.TID 0000.0001)     ;
(PID.TID 0000.0001) cvapor_exp_ice= /* const. for Saturation calculation [?] */
(PID.TID 0000.0001)                 5.897800000000000E+03
(PID.TID 0000.0001)     ;
(PID.TID 0000.0001) humid_fac = /* humidity coef. in virtual temp. [(kg/kg)^-1] */
(PID.TID 0000.0001)                 6.060000000000000E-01
(PID.TID 0000.0001)     ;
(PID.TID 0000.0001) gamma_blk = /* adiabatic lapse rate [?] */
(PID.TID 0000.0001)                 1.000000000000000E-02
(PID.TID 0000.0001)     ;
(PID.TID 0000.0001) saltsat = /* reduction of Qsat over salty water [-] */
(PID.TID 0000.0001)                 9.800000000000000E-01
(PID.TID 0000.0001)     ;
(PID.TID 0000.0001) noNegativeEvap = /* prevent negative Evaporation */
(PID.TID 0000.0001)                   F
(PID.TID 0000.0001)     ;
(PID.TID 0000.0001) sstExtrapol = /* extrapolation coeff from lev. 1 & 2 to surf [-] */
(PID.TID 0000.0001)                 0.000000000000000E+00
(PID.TID 0000.0001)     ;
(PID.TID 0000.0001) cDrag_1 = /* coef used in drag calculation [?] */
(PID.TID 0000.0001)                 2.700000000000000E-03
(PID.TID 0000.0001)     ;
(PID.TID 0000.0001) cDrag_2 = /* coef used in drag calculation [?] */
(PID.TID 0000.0001)                 1.420000000000000E-04
(PID.TID 0000.0001)     ;
(PID.TID 0000.0001) cDrag_3 = /* coef used in drag calculation [?] */
(PID.TID 0000.0001)                 7.640000000000000E-05
(PID.TID 0000.0001)     ;
(PID.TID 0000.0001) cStanton_1 = /* coef used in Stanton number calculation [?] */
(PID.TID 0000.0001)                 3.270000000000000E-02
(PID.TID 0000.0001)     ;
(PID.TID 0000.0001) cStanton_2 = /* coef used in Stanton number calculation [?] */
(PID.TID 0000.0001)                 1.800000000000000E-02
(PID.TID 0000.0001)     ;
(PID.TID 0000.0001) cDalton = /* coef used in Dalton number calculation [?] */
(PID.TID 0000.0001)                 3.460000000000000E-02
(PID.TID 0000.0001)     ;
(PID.TID 0000.0001) exf_scal_BulkCdn= /* Drag coefficient scaling factor [-] */
(PID.TID 0000.0001)                 9.997000000000000E-01
(PID.TID 0000.0001)     ;
(PID.TID 0000.0001) zolmin = /* minimum stability parameter [?] */
(PID.TID 0000.0001)                -1.000000000000000E+02
(PID.TID 0000.0001)     ;
(PID.TID 0000.0001) psim_fac = /* coef used in turbulent fluxes calculation [-] */
(PID.TID 0000.0001)                 5.000000000000000E+00
(PID.TID 0000.0001)     ;
(PID.TID 0000.0001) zref =  /* reference height [ m ] */
(PID.TID 0000.0001)                 1.000000000000000E+01
(PID.TID 0000.0001)     ;
(PID.TID 0000.0001) hu =  /* height of mean wind [ m ] */
(PID.TID 0000.0001)                 1.000000000000000E+01
(PID.TID 0000.0001)     ;
(PID.TID 0000.0001) ht =  /* height of mean temperature [ m ] */
(PID.TID 0000.0001)                 2.000000000000000E+00
(PID.TID 0000.0001)     ;
(PID.TID 0000.0001) hq =  /* height of mean spec.humidity [ m ] */
(PID.TID 0000.0001)                 2.000000000000000E+00
(PID.TID 0000.0001)     ;
(PID.TID 0000.0001) uMin = /* minimum wind speed [m/s] */
(PID.TID 0000.0001)                 5.000000000000000E-01
(PID.TID 0000.0001)     ;
(PID.TID 0000.0001) useStabilityFct_overIce= /* transfert Coeffs over sea-ice depend on stability */
(PID.TID 0000.0001)                   F
(PID.TID 0000.0001)     ;
(PID.TID 0000.0001) exf_iceCd = /* drag coefficient over sea-ice (fixed) [-] */
(PID.TID 0000.0001)                 1.630000000000000E-03
(PID.TID 0000.0001)     ;
(PID.TID 0000.0001) exf_iceCe = /* transfert coeff. over sea-ice, for Evap (fixed) [-] */
(PID.TID 0000.0001)                 1.630000000000000E-03
(PID.TID 0000.0001)     ;
(PID.TID 0000.0001) exf_iceCh = /* transfert coeff. over sea-ice, Sens.Heat.(fixed)[-] */
(PID.TID 0000.0001)                 1.630000000000000E-03
(PID.TID 0000.0001)     ;
(PID.TID 0000.0001) exf_albedo =  /* Sea-water albedo [-] */
(PID.TID 0000.0001)                 1.000000000000000E-01
(PID.TID 0000.0001)     ;
(PID.TID 0000.0001) useExfZenAlbedo = /* Sea-water albedo varies with zenith angle */
(PID.TID 0000.0001)                   F
(PID.TID 0000.0001)     ;
(PID.TID 0000.0001) select_ZenAlbedo = /* Sea-water albedo computation method */
(PID.TID 0000.0001)                       0
(PID.TID 0000.0001)     ;
(PID.TID 0000.0001) useExfZenIncoming = /* compute incoming solar radiation */
(PID.TID 0000.0001)                   F
(PID.TID 0000.0001)     ;
(PID.TID 0000.0001) ocean_emissivity = /* longwave ocean-surface emissivity [-] */
(PID.TID 0000.0001)                 9.700176366843034E-01
(PID.TID 0000.0001)     ;
(PID.TID 0000.0001) ice_emissivity = /* longwave seaice emissivity [-] */
(PID.TID 0000.0001)                 9.500000000000000E-01
(PID.TID 0000.0001)     ;
(PID.TID 0000.0001) snow_emissivity = /* longwave snow  emissivity [-] */
(PID.TID 0000.0001)                 9.500000000000000E-01
(PID.TID 0000.0001)     ;
(PID.TID 0000.0001) 
(PID.TID 0000.0001)  EXF main CPP flags:
(PID.TID 0000.0001) 
(PID.TID 0000.0001) // USE_EXF_INTERPOLATION:              defined
(PID.TID 0000.0001) // ALLOW_ATM_TEMP:                     defined
(PID.TID 0000.0001) // ALLOW_ATM_WIND (useAtmWind):        defined
(PID.TID 0000.0001) // ALLOW_DOWNWARD_RADIATION:           defined
(PID.TID 0000.0001) // ALLOW_BULKFORMULAE:                 defined
(PID.TID 0000.0001) 
(PID.TID 0000.0001)    Zonal wind forcing starts at                          0.
(PID.TID 0000.0001)    Zonal wind forcing period is                      10800.
(PID.TID 0000.0001)    Zonal wind forcing repeat-cycle is                    0.
(PID.TID 0000.0001)    Zonal wind forcing is read from file:
(PID.TID 0000.0001)    >> jra55/jra55_u10m <<
(PID.TID 0000.0001)    interpolate "uwind" (method= 12 ):
(PID.TID 0000.0001)    lon0=   0.00000, nlon=   640, lon_inc= 0.5625000
(PID.TID 0000.0001)    lat0= -89.57009, nlat=   320, inc(min,max)= 0.55691 0.56162
(PID.TID 0000.0001) 
(PID.TID 0000.0001)    Meridional wind forcing starts at                     0.
(PID.TID 0000.0001)    Meridional wind forcing period is                 10800.
(PID.TID 0000.0001)    Meridional wind forcing repeat-cycle is               0.
(PID.TID 0000.0001)    Meridional wind forcing is read from file:
(PID.TID 0000.0001)    >> jra55/jra55_v10m <<
(PID.TID 0000.0001)    interpolate "vwind" (method= 22 ):
(PID.TID 0000.0001)    lon0=   0.00000, nlon=   640, lon_inc= 0.5625000
(PID.TID 0000.0001)    lat0= -89.57009, nlat=   320, inc(min,max)= 0.55691 0.56162
(PID.TID 0000.0001)     Interp. U & V comp. together: uvInterp_wind =    T
(PID.TID 0000.0001) 
(PID.TID 0000.0001)    Atmospheric temperature starts at                     0.
(PID.TID 0000.0001)    Atmospheric temperature period is                 10800.
(PID.TID 0000.0001)    Atmospheric temperature repeat-cycle is               0.
(PID.TID 0000.0001)    Atmospheric temperature is read from file:
(PID.TID 0000.0001)    >> jra55/jra55_tmp2m_degC <<
(PID.TID 0000.0001)    interpolate "atemp" (method=  1 ):
(PID.TID 0000.0001)    lon0=   0.00000, nlon=   640, lon_inc= 0.5625000
(PID.TID 0000.0001)    lat0= -89.57009, nlat=   320, inc(min,max)= 0.55691 0.56162
(PID.TID 0000.0001) 
(PID.TID 0000.0001)    Atmospheric specific humidity starts at               0.
(PID.TID 0000.0001)    Atmospheric specific humidity period is           10800.
(PID.TID 0000.0001)    Atmospheric specific humidity rep-cycle is            0.
(PID.TID 0000.0001)    Atmospheric specific humidity is read from file:
(PID.TID 0000.0001)    >> jra55/jra55_spfh2m <<
(PID.TID 0000.0001)    interpolate "aqh" (method=  1 ):
(PID.TID 0000.0001)    lon0=   0.00000, nlon=   640, lon_inc= 0.5625000
(PID.TID 0000.0001)    lat0= -89.57009, nlat=   320, inc(min,max)= 0.55691 0.56162
(PID.TID 0000.0001) 
(PID.TID 0000.0001) // ALLOW_READ_TURBFLUXES:          NOT defined
(PID.TID 0000.0001) // EXF_READ_EVAP:                  NOT defined
(PID.TID 0000.0001) 
(PID.TID 0000.0001)    Precipitation data starts at                       5400.
(PID.TID 0000.0001)    Precipitation data period is                      10800.
(PID.TID 0000.0001)    Precipitation data repeat-cycle is                    0.
(PID.TID 0000.0001)    Precipitation data is read from file:
(PID.TID 0000.0001)    >> jra55/jra55_rain <<
(PID.TID 0000.0001)    interpolate "precip" (method=  1 ):
(PID.TID 0000.0001)    lon0=   0.00000, nlon=   640, lon_inc= 0.5625000
(PID.TID 0000.0001)    lat0= -89.57009, nlat=   320, inc(min,max)= 0.55691 0.56162
(PID.TID 0000.0001) 
(PID.TID 0000.0001) // ALLOW_RUNOFF:                       defined
(PID.TID 0000.0001)    Runoff data period is                               -12.
(PID.TID 0000.0001)    Runoff data is read from file:
(PID.TID 0000.0001)    >> runoff1p2472-360x180x12.bin <<
(PID.TID 0000.0001)    interpolate "runoff" (method=  1 ):
(PID.TID 0000.0001)    lon0=   0.50000, nlon=   360, lon_inc= 1.0000000
(PID.TID 0000.0001)    lat0= -89.50000, nlat=   180, lat_inc= 1.0000000
(PID.TID 0000.0001) 
(PID.TID 0000.0001) // ALLOW_RUNOFTEMP:                NOT defined
(PID.TID 0000.0001) // ALLOW_SALTFLX:                  NOT defined
(PID.TID 0000.0001) 
(PID.TID 0000.0001)    Downward shortwave flux starts at                  5400.
(PID.TID 0000.0001)    Downward shortwave flux period is                 10800.
(PID.TID 0000.0001)    Downward shortwave flux repeat-cycle is               0.
(PID.TID 0000.0001)    Downward shortwave flux is read from file:
(PID.TID 0000.0001)    >> jra55/jra55_dsw <<
(PID.TID 0000.0001)    interpolate "swdown" (method=  1 ):
(PID.TID 0000.0001)    lon0=   0.00000, nlon=   640, lon_inc= 0.5625000
(PID.TID 0000.0001)    lat0= -89.57009, nlat=   320, inc(min,max)= 0.55691 0.56162
(PID.TID 0000.0001) 
(PID.TID 0000.0001)    Downward longwave flux starts at                   5400.
(PID.TID 0000.0001)    Downward longwave flux period is                  10800.
(PID.TID 0000.0001)    Downward longwave flux repeat-cycle is                0.
(PID.TID 0000.0001)    Downward longwave flux is read from file:
(PID.TID 0000.0001)    >> jra55/jra55_dlw <<
(PID.TID 0000.0001)    interpolate "lwdown" (method=  1 ):
(PID.TID 0000.0001)    lon0=   0.00000, nlon=   640, lon_inc= 0.5625000
(PID.TID 0000.0001)    lat0= -89.57009, nlat=   320, inc(min,max)= 0.55691 0.56162
(PID.TID 0000.0001) 
(PID.TID 0000.0001)    Atmospheric pressure forcing starts at             1800.
(PID.TID 0000.0001)    Atmospheric pressure forcing period is             3600.
(PID.TID 0000.0001)    Atmospheric pressure forcing rep-cycle is             0.
(PID.TID 0000.0001)    Atmospheric pressure forcing is read from file:
(PID.TID 0000.0001)    >> jra55/jra55_pres_tide <<
(PID.TID 0000.0001)    interpolate "apressure" (method=  1 ):
(PID.TID 0000.0001)    lon0=   0.00000, nlon=   640, lon_inc= 0.5625000
(PID.TID 0000.0001)    lat0= -89.57009, nlat=   320, inc(min,max)= 0.55691 0.56162
(PID.TID 0000.0001) 
(PID.TID 0000.0001) // =======================================================
(PID.TID 0000.0001) // External forcing (EXF) climatology configuration :
(PID.TID 0000.0001) // =======================================================
(PID.TID 0000.0001) 
(PID.TID 0000.0001) // ALLOW_CLIMSST_RELAXATION:       NOT defined
(PID.TID 0000.0001) 
(PID.TID 0000.0001) // ALLOW_CLIMSSS_RELAXATION:       NOT defined
(PID.TID 0000.0001) 
(PID.TID 0000.0001) // =======================================================
(PID.TID 0000.0001) // External forcing (EXF) configuration  >>> END <<<
(PID.TID 0000.0001) // =======================================================
(PID.TID 0000.0001) 
(PID.TID 0000.0001) ------------------------------------------------------------
(PID.TID 0000.0001) DIAGNOSTICS_SET_LEVELS: done
(PID.TID 0000.0001)  Total Nb of available Diagnostics: ndiagt=   213
(PID.TID 0000.0001)  write list of available Diagnostics to file: available_diagnostics.log
(PID.TID 0000.0001) SETDIAG: Allocate  1 x  1 Levels for Diagnostic #    23 ETAN
(PID.TID 0000.0001) SETDIAG: Allocate  1 x  1 Levels for Diagnostic #    80 oceTAUX
(PID.TID 0000.0001) SETDIAG: Allocate  1 x  1 Levels for Diagnostic #    81 oceTAUY
(PID.TID 0000.0001) SETDIAG: Allocate  1 x  1 Levels for Diagnostic #   185 EXFuwind
(PID.TID 0000.0001) SETDIAG: Allocate  1 x  1 Levels for Diagnostic #   186 EXFvwind
(PID.TID 0000.0001) SETDIAG: Allocate100 x  1 Levels for Diagnostic #    26 THETA
(PID.TID 0000.0001) SETDIAG: Allocate100 x  1 Levels for Diagnostic #    27 SALT
(PID.TID 0000.0001) SETDIAG: Allocate100 x  1 Levels for Diagnostic #    30 UVEL
(PID.TID 0000.0001) SETDIAG: Allocate100 x  1 Levels for Diagnostic #    31 VVEL
(PID.TID 0000.0001) SETDIAG: Allocate100 x  1 Levels for Diagnostic #    32 WVEL
(PID.TID 0000.0001)   space allocated for all diagnostics:     505 levels
(PID.TID 0000.0001)   set mate pointer for diag #    80  oceTAUX  , Parms: UU      U1 , mate:    81
(PID.TID 0000.0001)   set mate pointer for diag #    81  oceTAUY  , Parms: VV      U1 , mate:    80
(PID.TID 0000.0001)   set mate pointer for diag #    30  UVEL     , Parms: UUR     MR , mate:    31
(PID.TID 0000.0001)   set mate pointer for diag #    31  VVEL     , Parms: VVR     MR , mate:    30
(PID.TID 0000.0001) DIAGNOSTICS_SET_POINTERS: Set levels for Outp.Stream: diags/surface
(PID.TID 0000.0001)  Levels:       1.
(PID.TID 0000.0001) DIAGNOSTICS_SET_POINTERS: Set levels for Outp.Stream: diags/interior
(PID.TID 0000.0001)  Levels:       1.   2.   3.   4.   5.   6.   7.   8.   9.  10.  11.  12.  13.  14.  15.  16.  17.  18.  19.  20.
(PID.TID 0000.0001)  Levels:      21.  22.  23.  24.  25.  26.  27.  28.  29.  30.  31.  32.  33.  34.  35.  36.  37.  38.  39.  40.
(PID.TID 0000.0001)  Levels:      41.  42.  43.  44.  45.  46.  47.  48.  49.  50.  51.  52.  53.  54.  55.  56.  57.  58.  59.  60.
(PID.TID 0000.0001)  Levels:      61.  62.  63.  64.  65.  66.  67.  68.  69.  70.  71.  72.  73.  74.  75.  76.  77.  78.  79.  80.
(PID.TID 0000.0001)  Levels:      81.  82.  83.  84.  85.  86.  87.  88.  89.  90.  91.  92.  93.  94.  95.  96.  97.  98.  99. 100.
(PID.TID 0000.0001) DIAGNOSTICS_SET_POINTERS: done
(PID.TID 0000.0001) ------------------------------------------------------------
(PID.TID 0000.0001) DIAGSTATS_SET_REGIONS: define no region
(PID.TID 0000.0001) ------------------------------------------------------------
(PID.TID 0000.0001)   space allocated for all stats-diags:       0 levels
(PID.TID 0000.0001) DIAGSTATS_SET_POINTERS: done
(PID.TID 0000.0001) ------------------------------------------------------------
(PID.TID 0000.0001) INI_GLOBAL_DOMAIN: Found   0 CS-corner Pts in the domain
(PID.TID 0000.0001) %MON fCori_max                    =   1.0041454242952E-04
(PID.TID 0000.0001) %MON fCori_min                    =   6.5455131380473E-05
(PID.TID 0000.0001) %MON fCori_mean                   =   8.3776427441428E-05
(PID.TID 0000.0001) %MON fCori_sd                     =   1.0008726860381E-05
(PID.TID 0000.0001) %MON fCoriG_max                   =   1.0044048666784E-04
(PID.TID 0000.0001) %MON fCoriG_min                   =   6.5416192804139E-05
(PID.TID 0000.0001) %MON fCoriG_mean                  =   8.3781498070154E-05
(PID.TID 0000.0001) %MON fCoriG_sd                    =   1.0007203923655E-05
(PID.TID 0000.0001) %MON fCoriCos_max                 =   1.3032901415565E-04
(PID.TID 0000.0001) %MON fCoriCos_min                 =   1.0576835927387E-04
(PID.TID 0000.0001) %MON fCoriCos_mean                =   1.1875033868389E-04
(PID.TID 0000.0001) %MON fCoriCos_sd                  =   7.0511565763514E-06
(PID.TID 0000.0001) INI_CG2D: CG2D normalisation factor =  1.4987184796302395E-04
(PID.TID 0000.0001) INI_CG2D: cg2dTolerance = 7.057380800110476E-12 (Area=1.1301464652E+13)
(PID.TID 0000.0001) 
(PID.TID 0000.0001) // =======================================================
(PID.TID 0000.0001) // Model configuration
(PID.TID 0000.0001) // =======================================================
(PID.TID 0000.0001) //
(PID.TID 0000.0001) // "Physical" paramters ( PARM01 in namelist )
(PID.TID 0000.0001) //
(PID.TID 0000.0001) buoyancyRelation = /* Type of relation to get Buoyancy */
(PID.TID 0000.0001)               'OCEANIC'
(PID.TID 0000.0001)     ;
(PID.TID 0000.0001) fluidIsAir   =  /* fluid major constituent is Air */
(PID.TID 0000.0001)                   F
(PID.TID 0000.0001)     ;
(PID.TID 0000.0001) fluidIsWater =  /* fluid major constituent is Water */
(PID.TID 0000.0001)                   T
(PID.TID 0000.0001)     ;
(PID.TID 0000.0001) usingPCoords =  /* use p (or p*) vertical coordinate */
(PID.TID 0000.0001)                   F
(PID.TID 0000.0001)     ;
(PID.TID 0000.0001) usingZCoords =  /* use z (or z*) vertical coordinate */
(PID.TID 0000.0001)                   T
(PID.TID 0000.0001)     ;
(PID.TID 0000.0001) tRef =   /* Reference temperature profile ( oC or K ) */
(PID.TID 0000.0001)     5 @  1.889000000000000E+01,             /* K =  1:  5 */
(PID.TID 0000.0001)                 1.887000000000000E+01,      /* K =  6 */
(PID.TID 0000.0001)                 1.885000000000000E+01,      /* K =  7 */
(PID.TID 0000.0001)                 1.882000000000000E+01,      /* K =  8 */
(PID.TID 0000.0001)                 1.880000000000000E+01,      /* K =  9 */
(PID.TID 0000.0001)                 1.873000000000000E+01,      /* K = 10 */
(PID.TID 0000.0001)                 1.863000000000000E+01,      /* K = 11 */
(PID.TID 0000.0001)                 1.849000000000000E+01,      /* K = 12 */
(PID.TID 0000.0001)                 1.828000000000000E+01,      /* K = 13 */
(PID.TID 0000.0001)                 1.808000000000000E+01,      /* K = 14 */
(PID.TID 0000.0001)                 1.786000000000000E+01,      /* K = 15 */
(PID.TID 0000.0001)                 1.763000000000000E+01,      /* K = 16 */
(PID.TID 0000.0001)                 1.740000000000000E+01,      /* K = 17 */
(PID.TID 0000.0001)                 1.718000000000000E+01,      /* K = 18 */
(PID.TID 0000.0001)                 1.695000000000000E+01,      /* K = 19 */
(PID.TID 0000.0001)                 1.673000000000000E+01,      /* K = 20 */
(PID.TID 0000.0001)                 1.652000000000000E+01,      /* K = 21 */
(PID.TID 0000.0001)                 1.631000000000000E+01,      /* K = 22 */
(PID.TID 0000.0001)                 1.610000000000000E+01,      /* K = 23 */
(PID.TID 0000.0001)                 1.589000000000000E+01,      /* K = 24 */
(PID.TID 0000.0001)                 1.569000000000000E+01,      /* K = 25 */
(PID.TID 0000.0001)                 1.549000000000000E+01,      /* K = 26 */
(PID.TID 0000.0001)                 1.528000000000000E+01,      /* K = 27 */
(PID.TID 0000.0001)                 1.508000000000000E+01,      /* K = 28 */
(PID.TID 0000.0001)                 1.488000000000000E+01,      /* K = 29 */
(PID.TID 0000.0001)                 1.467000000000000E+01,      /* K = 30 */
(PID.TID 0000.0001)                 1.447000000000000E+01,      /* K = 31 */
(PID.TID 0000.0001)                 1.425000000000000E+01,      /* K = 32 */
(PID.TID 0000.0001)                 1.403000000000000E+01,      /* K = 33 */
(PID.TID 0000.0001)                 1.380000000000000E+01,      /* K = 34 */
(PID.TID 0000.0001)                 1.355000000000000E+01,      /* K = 35 */
(PID.TID 0000.0001)                 1.329000000000000E+01,      /* K = 36 */
(PID.TID 0000.0001)                 1.301000000000000E+01,      /* K = 37 */
(PID.TID 0000.0001)                 1.273000000000000E+01,      /* K = 38 */
(PID.TID 0000.0001)                 1.242000000000000E+01,      /* K = 39 */
(PID.TID 0000.0001)                 1.211000000000000E+01,      /* K = 40 */
(PID.TID 0000.0001)                 1.178000000000000E+01,      /* K = 41 */
(PID.TID 0000.0001)                 1.143000000000000E+01,      /* K = 42 */
(PID.TID 0000.0001)                 1.107000000000000E+01,      /* K = 43 */
(PID.TID 0000.0001)                 1.070000000000000E+01,      /* K = 44 */
(PID.TID 0000.0001)                 1.031000000000000E+01,      /* K = 45 */
(PID.TID 0000.0001)                 9.930000000000000E+00,      /* K = 46 */
(PID.TID 0000.0001)                 9.529999999999999E+00,      /* K = 47 */
(PID.TID 0000.0001)                 9.109999999999999E+00,      /* K = 48 */
(PID.TID 0000.0001)                 8.710000000000001E+00,      /* K = 49 */
(PID.TID 0000.0001)                 8.289999999999999E+00,      /* K = 50 */
(PID.TID 0000.0001)                 7.890000000000000E+00,      /* K = 51 */
(PID.TID 0000.0001)                 7.510000000000000E+00,      /* K = 52 */
(PID.TID 0000.0001)                 7.130000000000000E+00,      /* K = 53 */
(PID.TID 0000.0001)                 6.780000000000000E+00,      /* K = 54 */
(PID.TID 0000.0001)                 6.440000000000000E+00,      /* K = 55 */
(PID.TID 0000.0001)                 6.110000000000000E+00,      /* K = 56 */
(PID.TID 0000.0001)                 5.810000000000000E+00,      /* K = 57 */
(PID.TID 0000.0001)                 5.510000000000000E+00,      /* K = 58 */
(PID.TID 0000.0001)                 5.230000000000000E+00,      /* K = 59 */
(PID.TID 0000.0001)                 4.970000000000000E+00,      /* K = 60 */
(PID.TID 0000.0001)                 4.730000000000000E+00,      /* K = 61 */
(PID.TID 0000.0001)                 4.510000000000000E+00,      /* K = 62 */
(PID.TID 0000.0001)                 4.300000000000000E+00,      /* K = 63 */
(PID.TID 0000.0001)                 4.110000000000000E+00,      /* K = 64 */
(PID.TID 0000.0001)                 3.940000000000000E+00,      /* K = 65 */
(PID.TID 0000.0001)                 3.780000000000000E+00,      /* K = 66 */
(PID.TID 0000.0001)                 3.630000000000000E+00,      /* K = 67 */
(PID.TID 0000.0001)                 3.500000000000000E+00,      /* K = 68 */
(PID.TID 0000.0001)                 3.380000000000000E+00,      /* K = 69 */
(PID.TID 0000.0001)                 3.250000000000000E+00,      /* K = 70 */
(PID.TID 0000.0001)                 3.140000000000000E+00,      /* K = 71 */
(PID.TID 0000.0001)                 3.040000000000000E+00,      /* K = 72 */
(PID.TID 0000.0001)                 2.940000000000000E+00,      /* K = 73 */
(PID.TID 0000.0001)                 2.830000000000000E+00,      /* K = 74 */
(PID.TID 0000.0001)                 2.740000000000000E+00,      /* K = 75 */
(PID.TID 0000.0001)                 2.640000000000000E+00,      /* K = 76 */
(PID.TID 0000.0001)                 2.540000000000000E+00,      /* K = 77 */
(PID.TID 0000.0001)                 2.450000000000000E+00,      /* K = 78 */
(PID.TID 0000.0001)                 2.360000000000000E+00,      /* K = 79 */
(PID.TID 0000.0001)                 2.270000000000000E+00,      /* K = 80 */
(PID.TID 0000.0001)                 2.190000000000000E+00,      /* K = 81 */
(PID.TID 0000.0001)                 2.100000000000000E+00,      /* K = 82 */
(PID.TID 0000.0001)                 2.030000000000000E+00,      /* K = 83 */
(PID.TID 0000.0001)                 1.950000000000000E+00,      /* K = 84 */
(PID.TID 0000.0001)                 1.860000000000000E+00,      /* K = 85 */
(PID.TID 0000.0001)                 1.780000000000000E+00,      /* K = 86 */
(PID.TID 0000.0001)                 1.700000000000000E+00,      /* K = 87 */
(PID.TID 0000.0001)                 1.630000000000000E+00,      /* K = 88 */
(PID.TID 0000.0001)                 1.550000000000000E+00,      /* K = 89 */
(PID.TID 0000.0001)                 1.480000000000000E+00,      /* K = 90 */
(PID.TID 0000.0001)                 1.410000000000000E+00,      /* K = 91 */
(PID.TID 0000.0001)                 1.340000000000000E+00,      /* K = 92 */
(PID.TID 0000.0001)                 1.270000000000000E+00,      /* K = 93 */
(PID.TID 0000.0001)                 1.200000000000000E+00,      /* K = 94 */
(PID.TID 0000.0001)                 1.130000000000000E+00,      /* K = 95 */
(PID.TID 0000.0001)                 1.060000000000000E+00,      /* K = 96 */
(PID.TID 0000.0001)                 1.000000000000000E+00,      /* K = 97 */
(PID.TID 0000.0001)                 9.600000000000000E-01,      /* K = 98 */
(PID.TID 0000.0001)                 9.300000000000000E-01,      /* K = 99 */
(PID.TID 0000.0001)                 9.100000000000000E-01       /* K =100 */
(PID.TID 0000.0001)     ;
(PID.TID 0000.0001) sRef =   /* Reference salinity profile ( psu ) */
(PID.TID 0000.0001)     6 @  3.484000000000000E+01,             /* K =  1:  6 */
(PID.TID 0000.0001)     3 @  3.485000000000000E+01,             /* K =  7:  9 */
(PID.TID 0000.0001)                 3.486000000000000E+01,      /* K = 10 */
(PID.TID 0000.0001)                 3.487000000000000E+01,      /* K = 11 */
(PID.TID 0000.0001)                 3.488000000000000E+01,      /* K = 12 */
(PID.TID 0000.0001)                 3.490000000000000E+01,      /* K = 13 */
(PID.TID 0000.0001)                 3.491000000000000E+01,      /* K = 14 */
(PID.TID 0000.0001)                 3.493000000000000E+01,      /* K = 15 */
(PID.TID 0000.0001)                 3.495000000000000E+01,      /* K = 16 */
(PID.TID 0000.0001)                 3.496000000000000E+01,      /* K = 17 */
(PID.TID 0000.0001)                 3.498000000000000E+01,      /* K = 18 */
(PID.TID 0000.0001)                 3.499000000000000E+01,      /* K = 19 */
(PID.TID 0000.0001)                 3.500000000000000E+01,      /* K = 20 */
(PID.TID 0000.0001)                 3.501000000000000E+01,      /* K = 21 */
(PID.TID 0000.0001)                 3.502000000000000E+01,      /* K = 22 */
(PID.TID 0000.0001)                 3.503000000000000E+01,      /* K = 23 */
(PID.TID 0000.0001)                 3.504000000000000E+01,      /* K = 24 */
(PID.TID 0000.0001)                 3.505000000000000E+01,      /* K = 25 */
(PID.TID 0000.0001)                 3.506000000000000E+01,      /* K = 26 */
(PID.TID 0000.0001)     7 @  3.507000000000000E+01,             /* K = 27: 33 */
(PID.TID 0000.0001)                 3.506000000000000E+01,      /* K = 34 */
(PID.TID 0000.0001)                 3.505000000000000E+01,      /* K = 35 */
(PID.TID 0000.0001)                 3.504000000000000E+01,      /* K = 36 */
(PID.TID 0000.0001)                 3.503000000000000E+01,      /* K = 37 */
(PID.TID 0000.0001)                 3.502000000000000E+01,      /* K = 38 */
(PID.TID 0000.0001)                 3.501000000000000E+01,      /* K = 39 */
(PID.TID 0000.0001)                 3.499000000000000E+01,      /* K = 40 */
(PID.TID 0000.0001)                 3.497000000000000E+01,      /* K = 41 */
(PID.TID 0000.0001)                 3.495000000000000E+01,      /* K = 42 */
(PID.TID 0000.0001)                 3.492000000000000E+01,      /* K = 43 */
(PID.TID 0000.0001)                 3.490000000000000E+01,      /* K = 44 */
(PID.TID 0000.0001)                 3.487000000000000E+01,      /* K = 45 */
(PID.TID 0000.0001)                 3.484000000000000E+01,      /* K = 46 */
(PID.TID 0000.0001)                 3.481000000000000E+01,      /* K = 47 */
(PID.TID 0000.0001)                 3.478000000000000E+01,      /* K = 48 */
(PID.TID 0000.0001)                 3.475000000000000E+01,      /* K = 49 */
(PID.TID 0000.0001)                 3.472000000000000E+01,      /* K = 50 */
(PID.TID 0000.0001)                 3.469000000000000E+01,      /* K = 51 */
(PID.TID 0000.0001)                 3.467000000000000E+01,      /* K = 52 */
(PID.TID 0000.0001)                 3.465000000000000E+01,      /* K = 53 */
(PID.TID 0000.0001)                 3.462000000000000E+01,      /* K = 54 */
(PID.TID 0000.0001)                 3.461000000000000E+01,      /* K = 55 */
(PID.TID 0000.0001)                 3.460000000000000E+01,      /* K = 56 */
(PID.TID 0000.0001)     2 @  3.459000000000000E+01,             /* K = 57: 58 */
(PID.TID 0000.0001)                 3.458000000000000E+01,      /* K = 59 */
(PID.TID 0000.0001)     2 @  3.459000000000000E+01,             /* K = 60: 61 */
(PID.TID 0000.0001)     2 @  3.460000000000000E+01,             /* K = 62: 63 */
(PID.TID 0000.0001)                 3.461000000000000E+01,      /* K = 64 */
(PID.TID 0000.0001)                 3.462000000000000E+01,      /* K = 65 */
(PID.TID 0000.0001)                 3.463000000000000E+01,      /* K = 66 */
(PID.TID 0000.0001)                 3.464000000000000E+01,      /* K = 67 */
(PID.TID 0000.0001)                 3.465000000000000E+01,      /* K = 68 */
(PID.TID 0000.0001)                 3.466000000000000E+01,      /* K = 69 */
(PID.TID 0000.0001)     2 @  3.467000000000000E+01,             /* K = 70: 71 */
(PID.TID 0000.0001)                 3.468000000000000E+01,      /* K = 72 */
(PID.TID 0000.0001)                 3.469000000000000E+01,      /* K = 73 */
(PID.TID 0000.0001)                 3.470000000000000E+01,      /* K = 74 */
(PID.TID 0000.0001)     2 @  3.471000000000000E+01,             /* K = 75: 76 */
(PID.TID 0000.0001)     2 @  3.472000000000000E+01,             /* K = 77: 78 */
(PID.TID 0000.0001)     3 @  3.473000000000000E+01,             /* K = 79: 81 */
(PID.TID 0000.0001)     4 @  3.474000000000000E+01,             /* K = 82: 85 */
(PID.TID 0000.0001)                 3.475000000000000E+01,      /* K = 86 */
(PID.TID 0000.0001)     8 @  3.474000000000000E+01,             /* K = 87: 94 */
(PID.TID 0000.0001)     6 @  3.473000000000000E+01              /* K = 95:100 */
(PID.TID 0000.0001)     ;
(PID.TID 0000.0001) useStrainTensionVisc= /* Use StrainTension Form of Viscous Operator */
(PID.TID 0000.0001)                   F
(PID.TID 0000.0001)     ;
(PID.TID 0000.0001) useVariableVisc = /* Use variable horizontal viscosity */
(PID.TID 0000.0001)                   T
(PID.TID 0000.0001)     ;
(PID.TID 0000.0001) useHarmonicVisc = /* Use harmonic horizontal viscosity */
(PID.TID 0000.0001)                   F
(PID.TID 0000.0001)     ;
(PID.TID 0000.0001) useBiharmonicVisc= /* Use biharmonic horiz.  viscosity */
(PID.TID 0000.0001)                   T
(PID.TID 0000.0001)     ;
(PID.TID 0000.0001) useSmag3D = /* Use isotropic 3-D Smagorinsky viscosity */
(PID.TID 0000.0001)                   F
(PID.TID 0000.0001)     ;
(PID.TID 0000.0001) viscAh  =   /* Lateral harmonic viscosity ( m^2/s ) */
(PID.TID 0000.0001)                 0.000000000000000E+00
(PID.TID 0000.0001)     ;
(PID.TID 0000.0001) viscAhMax = /* Maximum lateral harmonic viscosity ( m^2/s ) */
(PID.TID 0000.0001)                 1.000000000000000E+21
(PID.TID 0000.0001)     ;
(PID.TID 0000.0001) viscAhGrid = /* Grid dependent lateral harmonic viscosity ( non-dim. ) */
(PID.TID 0000.0001)                 0.000000000000000E+00
(PID.TID 0000.0001)     ;
(PID.TID 0000.0001) useFullLeith = /* Use Full Form of Leith Viscosity on/off flag*/
(PID.TID 0000.0001)                   F
(PID.TID 0000.0001)     ;
(PID.TID 0000.0001) useAreaViscLength = /* Use area for visc length instead of geom. mean*/
(PID.TID 0000.0001)                   T
(PID.TID 0000.0001)     ;
(PID.TID 0000.0001) viscC2leith = /* Leith harmonic visc. factor (on grad(vort),non-dim.) */
(PID.TID 0000.0001)                 0.000000000000000E+00
(PID.TID 0000.0001)     ;
(PID.TID 0000.0001) viscC2leithD = /* Leith harmonic viscosity factor (on grad(div),non-dim.)*/
(PID.TID 0000.0001)                 0.000000000000000E+00
(PID.TID 0000.0001)     ;
(PID.TID 0000.0001) viscC2smag = /* Smagorinsky harmonic viscosity factor (non-dim.) */
(PID.TID 0000.0001)                 0.000000000000000E+00
(PID.TID 0000.0001)     ;
(PID.TID 0000.0001) viscA4  =   /* Lateral biharmonic viscosity ( m^4/s ) */
(PID.TID 0000.0001)                 0.000000000000000E+00
(PID.TID 0000.0001)     ;
(PID.TID 0000.0001) viscA4Max = /* Maximum biharmonic viscosity ( m^2/s ) */
(PID.TID 0000.0001)                 1.000000000000000E+21
(PID.TID 0000.0001)     ;
(PID.TID 0000.0001) viscA4Grid = /* Grid dependent biharmonic viscosity ( non-dim. ) */
(PID.TID 0000.0001)                 0.000000000000000E+00
(PID.TID 0000.0001)     ;
(PID.TID 0000.0001) viscC4leith = /* Leith biharm viscosity factor (on grad(vort), non-dim.)*/
(PID.TID 0000.0001)                 2.000000000000000E+00
(PID.TID 0000.0001)     ;
(PID.TID 0000.0001) viscC4leithD = /* Leith biharm viscosity factor (on grad(div), non-dim.) */
(PID.TID 0000.0001)                 2.000000000000000E+00
(PID.TID 0000.0001)     ;
(PID.TID 0000.0001) viscC4Smag = /* Smagorinsky biharm viscosity factor (non-dim) */
(PID.TID 0000.0001)                 0.000000000000000E+00
(PID.TID 0000.0001)     ;
(PID.TID 0000.0001) no_slip_sides =  /* Viscous BCs: No-slip sides */
(PID.TID 0000.0001)                   T
(PID.TID 0000.0001)     ;
(PID.TID 0000.0001) sideDragFactor = /* side-drag scaling factor (non-dim) */
(PID.TID 0000.0001)                 2.000000000000000E+00
(PID.TID 0000.0001)     ;
(PID.TID 0000.0001) viscArNr = /* vertical profile of vertical viscosity ( m^2/s )*/
(PID.TID 0000.0001)   100 @  5.000000000000000E-04              /* K =  1:100 */
(PID.TID 0000.0001)     ;
(PID.TID 0000.0001) no_slip_bottom =  /* Viscous BCs: No-slip bottom */
(PID.TID 0000.0001)                   T
(PID.TID 0000.0001)     ;
(PID.TID 0000.0001) bottomVisc_pCell = /* Partial-cell in bottom Visc. BC */
(PID.TID 0000.0001)                   F
(PID.TID 0000.0001)     ;
(PID.TID 0000.0001) bottomDragLinear = /* linear bottom-drag coefficient ( m/s ) */
(PID.TID 0000.0001)                 0.000000000000000E+00
(PID.TID 0000.0001)     ;
(PID.TID 0000.0001) bottomDragQuadratic = /* quadratic bottom-drag coefficient (-) */
(PID.TID 0000.0001)                 2.000000000000000E-03
(PID.TID 0000.0001)     ;
(PID.TID 0000.0001) selectBotDragQuadr = /* select quadratic bottom drag options */
(PID.TID 0000.0001)                       0
(PID.TID 0000.0001)     ;
(PID.TID 0000.0001) diffKhT =   /* Laplacian diffusion of heat laterally ( m^2/s ) */
(PID.TID 0000.0001)                 0.000000000000000E+00
(PID.TID 0000.0001)     ;
(PID.TID 0000.0001) diffK4T =   /* Biharmonic diffusion of heat laterally ( m^4/s ) */
(PID.TID 0000.0001)                 0.000000000000000E+00
(PID.TID 0000.0001)     ;
(PID.TID 0000.0001) diffKhS =   /* Laplacian diffusion of salt laterally ( m^2/s ) */
(PID.TID 0000.0001)                 0.000000000000000E+00
(PID.TID 0000.0001)     ;
(PID.TID 0000.0001) diffK4S =   /* Biharmonic diffusion of salt laterally ( m^4/s ) */
(PID.TID 0000.0001)                 0.000000000000000E+00
(PID.TID 0000.0001)     ;
(PID.TID 0000.0001) diffKrNrT = /* vertical profile of vertical diffusion of Temp ( m^2/s )*/
(PID.TID 0000.0001)   100 @  1.000000000000000E-05              /* K =  1:100 */
(PID.TID 0000.0001)     ;
(PID.TID 0000.0001) diffKrNrS = /* vertical profile of vertical diffusion of Salt ( m^2/s )*/
(PID.TID 0000.0001)   100 @  1.000000000000000E-05              /* K =  1:100 */
(PID.TID 0000.0001)     ;
(PID.TID 0000.0001) diffKrBL79surf = /* Surface diffusion for Bryan and Lewis 79 ( m^2/s ) */
(PID.TID 0000.0001)                 0.000000000000000E+00
(PID.TID 0000.0001)     ;
(PID.TID 0000.0001) diffKrBL79deep = /* Deep diffusion for Bryan and Lewis 1979 ( m^2/s ) */
(PID.TID 0000.0001)                 0.000000000000000E+00
(PID.TID 0000.0001)     ;
(PID.TID 0000.0001) diffKrBL79scl = /* Depth scale for Bryan and Lewis 1979 ( m ) */
(PID.TID 0000.0001)                 2.000000000000000E+02
(PID.TID 0000.0001)     ;
(PID.TID 0000.0001) diffKrBL79Ho = /* Turning depth for Bryan and Lewis 1979 ( m ) */
(PID.TID 0000.0001)                -2.000000000000000E+03
(PID.TID 0000.0001)     ;
(PID.TID 0000.0001) ivdc_kappa = /* Implicit Vertical Diffusivity for Convection ( m^2/s) */
(PID.TID 0000.0001)                 0.000000000000000E+00
(PID.TID 0000.0001)     ;
(PID.TID 0000.0001) hMixCriteria=  /* Criteria for mixed-layer diagnostic */
(PID.TID 0000.0001)                -8.000000000000000E-01
(PID.TID 0000.0001)     ;
(PID.TID 0000.0001) dRhoSmall =  /* Parameter for mixed-layer diagnostic */
(PID.TID 0000.0001)                 1.000000000000000E-06
(PID.TID 0000.0001)     ;
(PID.TID 0000.0001) hMixSmooth=  /* Smoothing parameter for mixed-layer diagnostic */
(PID.TID 0000.0001)                 0.000000000000000E+00
(PID.TID 0000.0001)     ;
(PID.TID 0000.0001) eosType =  /* Type of Equation of State */
(PID.TID 0000.0001)               'JMD95Z'
(PID.TID 0000.0001)     ;
(PID.TID 0000.0001) selectP_inEOS_Zc = /* select pressure to use in EOS (0,1,2,3) */
(PID.TID 0000.0001)                       0
(PID.TID 0000.0001)     0= -g*rhoConst*z ; 1= pRef (from tRef,sRef); 2= Hyd P ; 3= Hyd+NH P
(PID.TID 0000.0001)     ;
(PID.TID 0000.0001) HeatCapacity_Cp =  /* Specific heat capacity ( J/kg/K ) */
(PID.TID 0000.0001)                 3.994000000000000E+03
(PID.TID 0000.0001)     ;
(PID.TID 0000.0001) celsius2K = /* 0 degree Celsius converted to Kelvin ( K ) */
(PID.TID 0000.0001)                 2.731500000000000E+02
(PID.TID 0000.0001)     ;
(PID.TID 0000.0001) rhoConst  = /* Reference density (Boussinesq)  ( kg/m^3 ) */
(PID.TID 0000.0001)                 1.029000000000000E+03
(PID.TID 0000.0001)     ;
(PID.TID 0000.0001) rhoFacC = /* normalized Reference density @ cell-Center (-) */
(PID.TID 0000.0001)   100 @  1.000000000000000E+00              /* K =  1:100 */
(PID.TID 0000.0001)     ;
(PID.TID 0000.0001) rhoFacF = /* normalized Reference density @ W-Interface (-) */
(PID.TID 0000.0001)   101 @  1.000000000000000E+00              /* K =  1:101 */
(PID.TID 0000.0001)     ;
(PID.TID 0000.0001) rhoConstFresh = /* Fresh-water reference density ( kg/m^3 ) */
(PID.TID 0000.0001)                 1.000000000000000E+03
(PID.TID 0000.0001)     ;
(PID.TID 0000.0001) gravity =   /* Gravitational acceleration ( m/s^2 ) */
(PID.TID 0000.0001)                 9.810000000000000E+00
(PID.TID 0000.0001)     ;
(PID.TID 0000.0001) gBaro =   /* Barotropic gravity ( m/s^2 ) */
(PID.TID 0000.0001)                 9.810000000000000E+00
(PID.TID 0000.0001)     ;
(PID.TID 0000.0001) gravFacC = /* gravity factor (vs surf.) @ cell-Center (-) */
(PID.TID 0000.0001)   100 @  1.000000000000000E+00              /* K =  1:100 */
(PID.TID 0000.0001)     ;
(PID.TID 0000.0001) gravFacF = /* gravity factor (vs surf.) @ W-Interface (-) */
(PID.TID 0000.0001)   101 @  1.000000000000000E+00              /* K =  1:101 */
(PID.TID 0000.0001)     ;
(PID.TID 0000.0001) rotationPeriod =   /* Rotation Period ( s ) */
(PID.TID 0000.0001)                 8.616400000000000E+04
(PID.TID 0000.0001)     ;
(PID.TID 0000.0001) omega =   /* Angular velocity ( rad/s ) */
(PID.TID 0000.0001)                 7.292123516990375E-05
(PID.TID 0000.0001)     ;
(PID.TID 0000.0001) f0 =   /* Reference coriolis parameter ( 1/s ) */
(PID.TID 0000.0001)                 1.000000000000000E-04
(PID.TID 0000.0001)     ;
(PID.TID 0000.0001) beta =   /* Beta ( 1/(m.s) ) */
(PID.TID 0000.0001)                 9.999999999999999E-12
(PID.TID 0000.0001)     ;
(PID.TID 0000.0001) fPrime =   /* Second coriolis parameter ( 1/s ) */
(PID.TID 0000.0001)                 0.000000000000000E+00
(PID.TID 0000.0001)     ;
(PID.TID 0000.0001) rigidLid =   /* Rigid lid on/off flag */
(PID.TID 0000.0001)                   F
(PID.TID 0000.0001)     ;
(PID.TID 0000.0001) implicitFreeSurface =   /* Implicit free surface on/off flag */
(PID.TID 0000.0001)                   T
(PID.TID 0000.0001)     ;
(PID.TID 0000.0001) freeSurfFac =   /* Implicit free surface factor */
(PID.TID 0000.0001)                 1.000000000000000E+00
(PID.TID 0000.0001)     ;
(PID.TID 0000.0001) implicSurfPress =  /* Surface Pressure implicit factor (0-1)*/
(PID.TID 0000.0001)                 1.000000000000000E+00
(PID.TID 0000.0001)     ;
(PID.TID 0000.0001) implicDiv2DFlow =  /* Barot. Flow Div. implicit factor (0-1)*/
(PID.TID 0000.0001)                 1.000000000000000E+00
(PID.TID 0000.0001)     ;
(PID.TID 0000.0001) uniformLin_PhiSurf = /* use uniform Bo_surf on/off flag*/
(PID.TID 0000.0001)                   T
(PID.TID 0000.0001)     ;
(PID.TID 0000.0001) uniformFreeSurfLev = /* free-surface level-index is uniform */
(PID.TID 0000.0001)                   T
(PID.TID 0000.0001)     ;
(PID.TID 0000.0001) hFacMin =   /* minimum partial cell factor (hFac) */
(PID.TID 0000.0001)                 2.000000000000000E-01
(PID.TID 0000.0001)     ;
(PID.TID 0000.0001) hFacMinDr = /* minimum partial cell thickness ( m) */
(PID.TID 0000.0001)                 5.000000000000000E+00
(PID.TID 0000.0001)     ;
(PID.TID 0000.0001) exactConserv =  /* Exact Volume Conservation on/off flag*/
(PID.TID 0000.0001)                   T
(PID.TID 0000.0001)     ;
(PID.TID 0000.0001) linFSConserveTr = /* Tracer correction for Lin Free Surface on/off flag*/
(PID.TID 0000.0001)                   F
(PID.TID 0000.0001)     ;
(PID.TID 0000.0001) nonlinFreeSurf = /* Non-linear Free Surf. options (-1,0,1,2,3)*/
(PID.TID 0000.0001)                       0
(PID.TID 0000.0001)      -1,0= Off ; 1,2,3= On, 2=+rescale gU,gV, 3=+update cg2d solv.
(PID.TID 0000.0001)     ;
(PID.TID 0000.0001) hFacInf =   /* lower threshold for hFac (nonlinFreeSurf only)*/
(PID.TID 0000.0001)                 2.000000000000000E-01
(PID.TID 0000.0001)     ;
(PID.TID 0000.0001) hFacSup =   /* upper threshold for hFac (nonlinFreeSurf only)*/
(PID.TID 0000.0001)                 2.000000000000000E+00
(PID.TID 0000.0001)     ;
(PID.TID 0000.0001) select_rStar = /* r* Vertical coord. options (=0 r coord.; >0 uses r*)*/
(PID.TID 0000.0001)                       0
(PID.TID 0000.0001)     ;
(PID.TID 0000.0001) useRealFreshWaterFlux = /* Real Fresh Water Flux on/off flag*/
(PID.TID 0000.0001)                   F
(PID.TID 0000.0001)     ;
(PID.TID 0000.0001) temp_EvPrRn = /* Temp. of Evap/Prec/R (UNSET=use local T)(oC)*/
(PID.TID 0000.0001)                 0.000000000000000E+00
(PID.TID 0000.0001)     ;
(PID.TID 0000.0001) salt_EvPrRn = /* Salin. of Evap/Prec/R (UNSET=use local S)(psu)*/
(PID.TID 0000.0001)                 0.000000000000000E+00
(PID.TID 0000.0001)     ;
(PID.TID 0000.0001) selectAddFluid = /* option for mass source/sink of fluid (=0: off) */
(PID.TID 0000.0001)                       0
(PID.TID 0000.0001)     ;
(PID.TID 0000.0001) temp_addMass = /* Temp. of addMass array (UNSET=use local T)(oC)*/
(PID.TID 0000.0001)                 0.000000000000000E+00
(PID.TID 0000.0001)     ;
(PID.TID 0000.0001) salt_addMass = /* Salin. of addMass array (UNSET=use local S)(psu)*/
(PID.TID 0000.0001)                 0.000000000000000E+00
(PID.TID 0000.0001)     ;
(PID.TID 0000.0001) convertFW2Salt = /* convert F.W. Flux to Salt Flux (-1=use local S)(psu)*/
(PID.TID 0000.0001)                -1.000000000000000E+00
(PID.TID 0000.0001)     ;
(PID.TID 0000.0001) use3Dsolver = /* use 3-D pressure solver on/off flag */
(PID.TID 0000.0001)                   F
(PID.TID 0000.0001)     ;
(PID.TID 0000.0001) nonHydrostatic =  /* Non-Hydrostatic on/off flag */
(PID.TID 0000.0001)                   F
(PID.TID 0000.0001)     ;
(PID.TID 0000.0001) nh_Am2 = /* Non-Hydrostatic terms scaling factor */
(PID.TID 0000.0001)                 1.000000000000000E+00
(PID.TID 0000.0001)     ;
(PID.TID 0000.0001) implicitNHPress = /* Non-Hyd Pressure implicit factor (0-1)*/
(PID.TID 0000.0001)                 1.000000000000000E+00
(PID.TID 0000.0001)     ;
(PID.TID 0000.0001) selectNHfreeSurf = /* Non-Hyd (free-)Surface option */
(PID.TID 0000.0001)                       0
(PID.TID 0000.0001)     ;
(PID.TID 0000.0001) quasiHydrostatic = /* Quasi-Hydrostatic on/off flag */
(PID.TID 0000.0001)                   F
(PID.TID 0000.0001)     ;
(PID.TID 0000.0001) calc_wVelocity = /* vertical velocity calculation on/off flag */
(PID.TID 0000.0001)                   T
(PID.TID 0000.0001)     ;
(PID.TID 0000.0001) momStepping =  /* Momentum equation on/off flag */
(PID.TID 0000.0001)                   T
(PID.TID 0000.0001)     ;
(PID.TID 0000.0001) vectorInvariantMomentum= /* Vector-Invariant Momentum on/off */
(PID.TID 0000.0001)                   T
(PID.TID 0000.0001)     ;
(PID.TID 0000.0001) momAdvection =  /* Momentum advection on/off flag */
(PID.TID 0000.0001)                   T
(PID.TID 0000.0001)     ;
(PID.TID 0000.0001) momViscosity =  /* Momentum viscosity on/off flag */
(PID.TID 0000.0001)                   T
(PID.TID 0000.0001)     ;
(PID.TID 0000.0001) momImplVertAdv= /* Momentum implicit vert. advection on/off*/
(PID.TID 0000.0001)                   F
(PID.TID 0000.0001)     ;
(PID.TID 0000.0001) implicitViscosity = /* Implicit viscosity on/off flag */
(PID.TID 0000.0001)                   T
(PID.TID 0000.0001)     ;
(PID.TID 0000.0001) selectImplicitDrag= /* Implicit bot Drag options (0,1,2)*/
(PID.TID 0000.0001)                       0
(PID.TID 0000.0001)     0= Expl. ; 1= Impl. on provis. Vel ; 2= Fully Impl (with surf.P)
(PID.TID 0000.0001)     ;
(PID.TID 0000.0001) metricTerms =  /* metric-Terms on/off flag */
(PID.TID 0000.0001)                   F
(PID.TID 0000.0001)     ;
(PID.TID 0000.0001) useNHMTerms = /* Non-Hydrostatic Metric-Terms on/off */
(PID.TID 0000.0001)                   F
(PID.TID 0000.0001)     ;
(PID.TID 0000.0001) selectCoriMap = /* Coriolis Map options (0,1,2,3)*/
(PID.TID 0000.0001)                       2
(PID.TID 0000.0001)     0= f-Plane ; 1= Beta-Plane ; 2= Spherical ; 3= read from file
(PID.TID 0000.0001)     ;
(PID.TID 0000.0001) use3dCoriolis = /* 3-D Coriolis on/off flag */
(PID.TID 0000.0001)                   F
(PID.TID 0000.0001)     ;
(PID.TID 0000.0001) useCoriolis =  /* Coriolis on/off flag */
(PID.TID 0000.0001)                   T
(PID.TID 0000.0001)     ;
(PID.TID 0000.0001) useCDscheme =  /* CD scheme on/off flag */
(PID.TID 0000.0001)                   F
(PID.TID 0000.0001)     ;
(PID.TID 0000.0001) useEnergyConservingCoriolis= /* Flx-Form Coriolis scheme flag */
(PID.TID 0000.0001)                   F
(PID.TID 0000.0001)     ;
(PID.TID 0000.0001) useJamartWetPoints= /* Coriolis WetPoints method flag */
(PID.TID 0000.0001)                   F
(PID.TID 0000.0001)     ;
(PID.TID 0000.0001) useJamartMomAdv= /* V.I Non-linear terms Jamart flag */
(PID.TID 0000.0001)                   F
(PID.TID 0000.0001)     ;
(PID.TID 0000.0001) useAbsVorticity= /* V.I Works with f+zeta in Coriolis */
(PID.TID 0000.0001)                   F
(PID.TID 0000.0001)     ;
(PID.TID 0000.0001) selectVortScheme= /* V.I Scheme selector for Vorticity-Term */
(PID.TID 0000.0001)                       0
(PID.TID 0000.0001)    = 0 : enstrophy (Shallow-Water Eq.) conserving scheme by Sadourny, JAS 75
(PID.TID 0000.0001)    = 1 : same as 0 with modified hFac
(PID.TID 0000.0001)    = 2 : energy conserving scheme (used by Sadourny in JAS 75 paper)
(PID.TID 0000.0001)    = 3 : energy (general) and enstrophy (2D, nonDiv.) conserving scheme
(PID.TID 0000.0001)          from Sadourny (Burridge & Haseler, ECMWF Rep.4, 1977)
(PID.TID 0000.0001)     ;
(PID.TID 0000.0001) upwindVorticity= /* V.I Upwind bias vorticity flag */
(PID.TID 0000.0001)                   F
(PID.TID 0000.0001)     ;
(PID.TID 0000.0001) highOrderVorticity= /* V.I High order vort. advect. flag */
(PID.TID 0000.0001)                   T
(PID.TID 0000.0001)     ;
(PID.TID 0000.0001) upwindShear= /* V.I Upwind vertical Shear advection flag */
(PID.TID 0000.0001)                   F
(PID.TID 0000.0001)     ;
(PID.TID 0000.0001) selectKEscheme= /* V.I Kinetic Energy scheme selector */
(PID.TID 0000.0001)                       0
(PID.TID 0000.0001)     ;
(PID.TID 0000.0001) momForcing =  /* Momentum forcing on/off flag */
(PID.TID 0000.0001)                   T
(PID.TID 0000.0001)     ;
(PID.TID 0000.0001) momTidalForcing = /* Momentum Tidal forcing on/off flag */
(PID.TID 0000.0001)                   T
(PID.TID 0000.0001)     ;
(PID.TID 0000.0001) momPressureForcing =  /* Momentum pressure term on/off flag */
(PID.TID 0000.0001)                   T
(PID.TID 0000.0001)     ;
(PID.TID 0000.0001) implicitIntGravWave= /* Implicit Internal Gravity Wave flag */
(PID.TID 0000.0001)                   F
(PID.TID 0000.0001)     ;
(PID.TID 0000.0001) staggerTimeStep =    /* Stagger time stepping on/off flag */
(PID.TID 0000.0001)                   T
(PID.TID 0000.0001)     ;
(PID.TID 0000.0001) doResetHFactors = /* reset thickness factors @ each time-step */
(PID.TID 0000.0001)                   F
(PID.TID 0000.0001)     ;
(PID.TID 0000.0001) multiDimAdvection =  /* enable/disable Multi-Dim Advection */
(PID.TID 0000.0001)                   T
(PID.TID 0000.0001)     ;
(PID.TID 0000.0001) useMultiDimAdvec =   /* Multi-Dim Advection is/is-not used */
(PID.TID 0000.0001)                   T
(PID.TID 0000.0001)     ;
(PID.TID 0000.0001) implicitDiffusion = /* Implicit Diffusion on/off flag */
(PID.TID 0000.0001)                   T
(PID.TID 0000.0001)     ;
(PID.TID 0000.0001) tempStepping =  /* Temperature equation on/off flag */
(PID.TID 0000.0001)                   T
(PID.TID 0000.0001)     ;
(PID.TID 0000.0001) tempAdvection = /* Temperature advection on/off flag */
(PID.TID 0000.0001)                   T
(PID.TID 0000.0001)     ;
(PID.TID 0000.0001) tempImplVertAdv = /* Temp. implicit vert. advection on/off */
(PID.TID 0000.0001)                   F
(PID.TID 0000.0001)     ;
(PID.TID 0000.0001) tempForcing  =  /* Temperature forcing on/off flag */
(PID.TID 0000.0001)                   T
(PID.TID 0000.0001)     ;
(PID.TID 0000.0001) doThetaClimRelax = /* apply SST relaxation on/off flag */
(PID.TID 0000.0001)                   F
(PID.TID 0000.0001)     ;
(PID.TID 0000.0001) tempIsActiveTr = /* Temp. is a dynamically Active Tracer */
(PID.TID 0000.0001)                   T
(PID.TID 0000.0001)     ;
(PID.TID 0000.0001) saltStepping =  /* Salinity equation on/off flag */
(PID.TID 0000.0001)                   T
(PID.TID 0000.0001)     ;
(PID.TID 0000.0001) saltAdvection = /* Salinity advection on/off flag */
(PID.TID 0000.0001)                   T
(PID.TID 0000.0001)     ;
(PID.TID 0000.0001) saltImplVertAdv = /* Sali. implicit vert. advection on/off */
(PID.TID 0000.0001)                   F
(PID.TID 0000.0001)     ;
(PID.TID 0000.0001) saltForcing  =  /* Salinity forcing on/off flag */
(PID.TID 0000.0001)                   T
(PID.TID 0000.0001)     ;
(PID.TID 0000.0001) doSaltClimRelax = /* apply SSS relaxation on/off flag */
(PID.TID 0000.0001)                   F
(PID.TID 0000.0001)     ;
(PID.TID 0000.0001) saltIsActiveTr = /* Salt  is a dynamically Active Tracer */
(PID.TID 0000.0001)                   T
(PID.TID 0000.0001)     ;
(PID.TID 0000.0001)  readBinaryPrec = /* Precision used for reading binary files */
(PID.TID 0000.0001)                      32
(PID.TID 0000.0001)     ;
(PID.TID 0000.0001) writeBinaryPrec = /* Precision used for writing binary files */
(PID.TID 0000.0001)                      32
(PID.TID 0000.0001)     ;
(PID.TID 0000.0001)  rwSuffixType =   /* select format of mds file suffix */
(PID.TID 0000.0001)                       0
(PID.TID 0000.0001)    = 0 : myIter (I10.10) ;   = 1 : 100*myTime (100th sec) ;
(PID.TID 0000.0001)    = 2 : myTime (seconds);   = 3 : myTime/360 (10th of hr);
(PID.TID 0000.0001)    = 4 : myTime/3600 (hours)
(PID.TID 0000.0001)     ;
(PID.TID 0000.0001)  globalFiles = /* write "global" (=not per tile) files */
(PID.TID 0000.0001)                   T
(PID.TID 0000.0001)     ;
(PID.TID 0000.0001)  useSingleCpuIO = /* only master MPI process does I/O */
(PID.TID 0000.0001)                   T
(PID.TID 0000.0001)     ;
(PID.TID 0000.0001)  useSingleCpuInput = /* only master process reads input */
(PID.TID 0000.0001)                   T
(PID.TID 0000.0001)     ;
(PID.TID 0000.0001) /* debLev[*]  : level of debug & auxiliary message printing */
(PID.TID 0000.0001) debLevZero =  0 ; /* level of disabled aux. msg printing */
(PID.TID 0000.0001)    debLevA =  1 ; /* level of minimum  aux. msg printing */
(PID.TID 0000.0001)    debLevB =  2 ; /* level of low aux. print (report read-file opening)*/
(PID.TID 0000.0001)    debLevC =  3 ; /* level of moderate debug prt (most pkgs debug msg) */
(PID.TID 0000.0001)    debLevD =  4 ; /* level of enhanced debug prt (add DEBUG_STATS prt) */
(PID.TID 0000.0001)    debLevE =  5 ; /* level of extensive debug printing */
(PID.TID 0000.0001) debugLevel =  /* select debug printing level */
(PID.TID 0000.0001)                       2
(PID.TID 0000.0001)     ;
(PID.TID 0000.0001)  plotLevel =  /* select PLOT_FIELD printing level */
(PID.TID 0000.0001)                       2
(PID.TID 0000.0001)     ;
(PID.TID 0000.0001) //
(PID.TID 0000.0001) // Elliptic solver(s) paramters ( PARM02 in namelist )
(PID.TID 0000.0001) //
(PID.TID 0000.0001) cg2dMaxIters =   /* Upper limit on 2d con. grad iterations  */
(PID.TID 0000.0001)                    1000
(PID.TID 0000.0001)     ;
(PID.TID 0000.0001) cg2dChkResFreq =   /* 2d con. grad convergence test frequency */
(PID.TID 0000.0001)                       1
(PID.TID 0000.0001)     ;
(PID.TID 0000.0001) cg2dUseMinResSol= /* use cg2d last-iter(=0) / min-resid.(=1) solution */
(PID.TID 0000.0001)                       0
(PID.TID 0000.0001)     ;
(PID.TID 0000.0001) cg2dTargetResidual =   /* 2d con. grad target residual  */
(PID.TID 0000.0001)                 1.000000000000000E-07
(PID.TID 0000.0001)     ;
(PID.TID 0000.0001) cg2dTargetResWunit =   /* CG2d target residual [W units] */
(PID.TID 0000.0001)                 1.000000000000000E-18
(PID.TID 0000.0001)     ;
(PID.TID 0000.0001) cg2dPreCondFreq =   /* Freq. for updating cg2d preconditioner */
(PID.TID 0000.0001)                       1
(PID.TID 0000.0001)     ;
(PID.TID 0000.0001) useSRCGSolver =  /* use single reduction CG solver(s) */
(PID.TID 0000.0001)                   F
(PID.TID 0000.0001)     ;
(PID.TID 0000.0001) printResidualFreq = /* Freq. for printing CG residual */
(PID.TID 0000.0001)                       0
(PID.TID 0000.0001)     ;
(PID.TID 0000.0001) //
(PID.TID 0000.0001) // Time stepping paramters ( PARM03 in namelist )
(PID.TID 0000.0001) //
(PID.TID 0000.0001) deltaTMom =   /* Momentum equation timestep ( s ) */
(PID.TID 0000.0001)                 2.400000000000000E+02
(PID.TID 0000.0001)     ;
(PID.TID 0000.0001) deltaTFreeSurf = /* FreeSurface equation timestep ( s ) */
(PID.TID 0000.0001)                 2.400000000000000E+02
(PID.TID 0000.0001)     ;
(PID.TID 0000.0001) dTtracerLev =  /* Tracer equation timestep ( s ) */
(PID.TID 0000.0001)   100 @  2.400000000000000E+02              /* K =  1:100 */
(PID.TID 0000.0001)     ;
(PID.TID 0000.0001) deltaTClock  =   /* Model clock timestep ( s ) */
(PID.TID 0000.0001)                 2.400000000000000E+02
(PID.TID 0000.0001)     ;
(PID.TID 0000.0001) cAdjFreq =   /* Convective adjustment interval ( s ) */
(PID.TID 0000.0001)                 0.000000000000000E+00
(PID.TID 0000.0001)     ;
(PID.TID 0000.0001) momForcingOutAB = /* =1: take Momentum Forcing out of Adams-Bash. stepping */
(PID.TID 0000.0001)                       1
(PID.TID 0000.0001)     ;
(PID.TID 0000.0001) tracForcingOutAB = /* =1: take T,S,pTr Forcing out of Adams-Bash. stepping */
(PID.TID 0000.0001)                       1
(PID.TID 0000.0001)     ;
(PID.TID 0000.0001) momDissip_In_AB = /* put Dissipation Tendency in Adams-Bash. stepping */
(PID.TID 0000.0001)                   F
(PID.TID 0000.0001)     ;
(PID.TID 0000.0001) doAB_onGtGs = /* apply AB on Tendencies (rather than on T,S)*/
(PID.TID 0000.0001)                   T
(PID.TID 0000.0001)     ;
(PID.TID 0000.0001) abEps =   /* Adams-Bashforth-2 stabilizing weight */
(PID.TID 0000.0001)                 1.000000000000000E-01
(PID.TID 0000.0001)     ;
(PID.TID 0000.0001) applyExchUV_early = /* Apply EXCH to U,V earlier in time-step */
(PID.TID 0000.0001)                   F
(PID.TID 0000.0001)     ;
(PID.TID 0000.0001) pickupStrictlyMatch= /* stop if pickup do not strictly match */
(PID.TID 0000.0001)                   F
(PID.TID 0000.0001)     ;
(PID.TID 0000.0001) nIter0   =   /* Run starting timestep number */
(PID.TID 0000.0001)                       0
(PID.TID 0000.0001)     ;
(PID.TID 0000.0001) nTimeSteps = /* Number of timesteps */
(PID.TID 0000.0001)                      15
(PID.TID 0000.0001)     ;
(PID.TID 0000.0001) nEndIter =   /* Run ending timestep number */
(PID.TID 0000.0001)                      15
(PID.TID 0000.0001)     ;
(PID.TID 0000.0001) baseTime =   /* Model base time ( s ) */
(PID.TID 0000.0001)                 0.000000000000000E+00
(PID.TID 0000.0001)     ;
(PID.TID 0000.0001) startTime =  /* Run start time ( s ) */
(PID.TID 0000.0001)                 0.000000000000000E+00
(PID.TID 0000.0001)     ;
(PID.TID 0000.0001) endTime  =   /* Integration ending time ( s ) */
(PID.TID 0000.0001)                 3.600000000000000E+03
(PID.TID 0000.0001)     ;
(PID.TID 0000.0001) pChkPtFreq = /* Permanent restart/pickup file interval ( s ) */
(PID.TID 0000.0001)                 8.640000000000000E+05
(PID.TID 0000.0001)     ;
(PID.TID 0000.0001) chkPtFreq  = /* Rolling restart/pickup file interval ( s ) */
(PID.TID 0000.0001)                 0.000000000000000E+00
(PID.TID 0000.0001)     ;
(PID.TID 0000.0001) pickup_write_mdsio =   /* Model IO flag. */
(PID.TID 0000.0001)                   T
(PID.TID 0000.0001)     ;
(PID.TID 0000.0001) pickup_read_mdsio =   /* Model IO flag. */
(PID.TID 0000.0001)                   T
(PID.TID 0000.0001)     ;
(PID.TID 0000.0001) writePickupAtEnd =   /* Model IO flag. */
(PID.TID 0000.0001)                   T
(PID.TID 0000.0001)     ;
(PID.TID 0000.0001) dumpFreq =   /* Model state write out interval ( s ). */
(PID.TID 0000.0001)                 0.000000000000000E+00
(PID.TID 0000.0001)     ;
(PID.TID 0000.0001) dumpInitAndLast= /* write out Initial & Last iter. model state */
(PID.TID 0000.0001)                   F
(PID.TID 0000.0001)     ;
(PID.TID 0000.0001) snapshot_mdsio =   /* Model IO flag. */
(PID.TID 0000.0001)                   T
(PID.TID 0000.0001)     ;
(PID.TID 0000.0001) monitorFreq =   /* Monitor output interval ( s ). */
(PID.TID 0000.0001)                 2.400000000000000E+02
(PID.TID 0000.0001)     ;
(PID.TID 0000.0001) monitorSelect = /* select group of variables to monitor */
(PID.TID 0000.0001)                       3
(PID.TID 0000.0001)     ;
(PID.TID 0000.0001) monitor_stdio =   /* Model IO flag. */
(PID.TID 0000.0001)                   T
(PID.TID 0000.0001)     ;
(PID.TID 0000.0001) externForcingPeriod =   /* forcing period (s) */
(PID.TID 0000.0001)                 0.000000000000000E+00
(PID.TID 0000.0001)     ;
(PID.TID 0000.0001) externForcingCycle =   /* period of the cyle (s). */
(PID.TID 0000.0001)                 0.000000000000000E+00
(PID.TID 0000.0001)     ;
(PID.TID 0000.0001) tauThetaClimRelax =   /* relaxation time scale (s) */
(PID.TID 0000.0001)                 0.000000000000000E+00
(PID.TID 0000.0001)     ;
(PID.TID 0000.0001) tauSaltClimRelax =   /* relaxation time scale (s) */
(PID.TID 0000.0001)                 0.000000000000000E+00
(PID.TID 0000.0001)     ;
(PID.TID 0000.0001) latBandClimRelax =   /* max. Lat. where relaxation */
(PID.TID 0000.0001)                 1.800000000000000E+02
(PID.TID 0000.0001)     ;
(PID.TID 0000.0001) //
(PID.TID 0000.0001) // Gridding paramters ( PARM04 in namelist )
(PID.TID 0000.0001) //
(PID.TID 0000.0001) usingCartesianGrid = /* Cartesian coordinates flag ( True/False ) */
(PID.TID 0000.0001)                   F
(PID.TID 0000.0001)     ;
(PID.TID 0000.0001) usingCylindricalGrid = /* Cylindrical coordinates flag ( True/False ) */
(PID.TID 0000.0001)                   F
(PID.TID 0000.0001)     ;
(PID.TID 0000.0001) usingSphericalPolarGrid = /* Spherical coordinates flag ( True/False ) */
(PID.TID 0000.0001)                   F
(PID.TID 0000.0001)     ;
(PID.TID 0000.0001) usingCurvilinearGrid = /* Curvilinear coordinates flag ( True/False ) */
(PID.TID 0000.0001)                   T
(PID.TID 0000.0001)     ;
(PID.TID 0000.0001) useMin4hFacEdges = /* set hFacW,S as minimum of adjacent hFacC factor */
(PID.TID 0000.0001)                   F
(PID.TID 0000.0001)     ;
(PID.TID 0000.0001) interViscAr_pCell = /* account for partial-cell in interior vert. viscosity */
(PID.TID 0000.0001)                   F
(PID.TID 0000.0001)     ;
(PID.TID 0000.0001) interDiffKr_pCell = /* account for partial-cell in interior vert. diffusion */
(PID.TID 0000.0001)                   F
(PID.TID 0000.0001)     ;
(PID.TID 0000.0001) pCellMix_select = /* option to enhance mixing near surface & bottom */
(PID.TID 0000.0001)                       0
(PID.TID 0000.0001)     ;
(PID.TID 0000.0001) selectSigmaCoord = /* Hybrid-Sigma Vert. Coordinate option */
(PID.TID 0000.0001)                       0
(PID.TID 0000.0001)     ;
(PID.TID 0000.0001) rSigmaBnd = /* r/sigma transition ( units of r ==  m ) */
(PID.TID 0000.0001)                 1.234567000000000E+05
(PID.TID 0000.0001)     ;
(PID.TID 0000.0001) rkSign =   /* index orientation relative to vertical coordinate */
(PID.TID 0000.0001)                -1.000000000000000E+00
(PID.TID 0000.0001)     ;
(PID.TID 0000.0001) gravitySign = /* gravity orientation relative to vertical coordinate */
(PID.TID 0000.0001)                -1.000000000000000E+00
(PID.TID 0000.0001)     ;
(PID.TID 0000.0001) seaLev_Z =  /* reference height of sea-level [m] */
(PID.TID 0000.0001)                 0.000000000000000E+00
(PID.TID 0000.0001)     ;
(PID.TID 0000.0001) top_Pres =  /* reference pressure at the top [Pa] */
(PID.TID 0000.0001)                 0.000000000000000E+00
(PID.TID 0000.0001)     ;
(PID.TID 0000.0001) mass2rUnit = /* convert mass per unit area [kg/m2] to r-units [m] */
(PID.TID 0000.0001)                 9.718172983479105E-04
(PID.TID 0000.0001)     ;
(PID.TID 0000.0001) rUnit2mass = /* convert r-units [m] to mass per unit area [kg/m2] */
(PID.TID 0000.0001)                 1.029000000000000E+03
(PID.TID 0000.0001)     ;
(PID.TID 0000.0001) drC =   /* C spacing ( units of r ) */
(PID.TID 0000.0001)                 2.500000000000000E+00,      /* K =  1 */
(PID.TID 0000.0001)    14 @  5.000000000000000E+00,             /* K =  2: 15 */
(PID.TID 0000.0001)                 5.005000000000000E+00,      /* K = 16 */
(PID.TID 0000.0001)                 5.010000000000000E+00,      /* K = 17 */
(PID.TID 0000.0001)                 5.015000000000000E+00,      /* K = 18 */
(PID.TID 0000.0001)                 5.029999999999999E+00,      /* K = 19 */
(PID.TID 0000.0001)                 5.055000000000000E+00,      /* K = 20 */
(PID.TID 0000.0001)                 5.095000000000001E+00,      /* K = 21 */
(PID.TID 0000.0001)                 5.160000000000000E+00,      /* K = 22 */
(PID.TID 0000.0001)                 5.255000000000000E+00,      /* K = 23 */
(PID.TID 0000.0001)                 5.400000000000000E+00,      /* K = 24 */
(PID.TID 0000.0001)                 5.605000000000000E+00,      /* K = 25 */
(PID.TID 0000.0001)                 5.880000000000000E+00,      /* K = 26 */
(PID.TID 0000.0001)                 6.245000000000000E+00,      /* K = 27 */
(PID.TID 0000.0001)                 6.710000000000000E+00,      /* K = 28 */
(PID.TID 0000.0001)                 7.295000000000000E+00,      /* K = 29 */
(PID.TID 0000.0001)                 8.020000000000000E+00,      /* K = 30 */
(PID.TID 0000.0001)                 8.890000000000001E+00,      /* K = 31 */
(PID.TID 0000.0001)                 9.910000000000000E+00,      /* K = 32 */
(PID.TID 0000.0001)                 1.109000000000000E+01,      /* K = 33 */
(PID.TID 0000.0001)                 1.242500000000000E+01,      /* K = 34 */
(PID.TID 0000.0001)                 1.391500000000000E+01,      /* K = 35 */
(PID.TID 0000.0001)                 1.555000000000000E+01,      /* K = 36 */
(PID.TID 0000.0001)                 1.732000000000000E+01,      /* K = 37 */
(PID.TID 0000.0001)                 1.921000000000000E+01,      /* K = 38 */
(PID.TID 0000.0001)                 2.119500000000000E+01,      /* K = 39 */
(PID.TID 0000.0001)                 2.325000000000000E+01,      /* K = 40 */
(PID.TID 0000.0001)                 2.536000000000000E+01,      /* K = 41 */
(PID.TID 0000.0001)                 2.750000000000000E+01,      /* K = 42 */
(PID.TID 0000.0001)                 2.964000000000000E+01,      /* K = 43 */
(PID.TID 0000.0001)                 3.175000000000000E+01,      /* K = 44 */
(PID.TID 0000.0001)                 3.380500000000000E+01,      /* K = 45 */
(PID.TID 0000.0001)                 3.579000000000000E+01,      /* K = 46 */
(PID.TID 0000.0001)                 3.768000000000000E+01,      /* K = 47 */
(PID.TID 0000.0001)                 3.945000000000000E+01,      /* K = 48 */
(PID.TID 0000.0001)                 4.108499999999999E+01,      /* K = 49 */
(PID.TID 0000.0001)                 4.257500000000000E+01,      /* K = 50 */
(PID.TID 0000.0001)                 4.391000000000000E+01,      /* K = 51 */
(PID.TID 0000.0001)                 4.509000000000000E+01,      /* K = 52 */
(PID.TID 0000.0001)                 4.611000000000000E+01,      /* K = 53 */
(PID.TID 0000.0001)                 4.698000000000000E+01,      /* K = 54 */
(PID.TID 0000.0001)                 4.770500000000000E+01,      /* K = 55 */
(PID.TID 0000.0001)                 4.829000000000000E+01,      /* K = 56 */
(PID.TID 0000.0001)                 4.875500000000000E+01,      /* K = 57 */
(PID.TID 0000.0001)                 4.912500000000000E+01,      /* K = 58 */
(PID.TID 0000.0001)                 4.941000000000000E+01,      /* K = 59 */
(PID.TID 0000.0001)                 4.962500000000000E+01,      /* K = 60 */
(PID.TID 0000.0001)                 4.981000000000000E+01,      /* K = 61 */
(PID.TID 0000.0001)                 5.000500000000000E+01,      /* K = 62 */
(PID.TID 0000.0001)                 5.026000000000000E+01,      /* K = 63 */
(PID.TID 0000.0001)                 5.066500000000000E+01,      /* K = 64 */
(PID.TID 0000.0001)                 5.130500000000000E+01,      /* K = 65 */
(PID.TID 0000.0001)                 5.228000000000000E+01,      /* K = 66 */
(PID.TID 0000.0001)                 5.370500000000000E+01,      /* K = 67 */
(PID.TID 0000.0001)                 5.566500000000000E+01,      /* K = 68 */
(PID.TID 0000.0001)                 5.823000000000000E+01,      /* K = 69 */
(PID.TID 0000.0001)                 6.141500000000000E+01,      /* K = 70 */
(PID.TID 0000.0001)                 6.521000000000001E+01,      /* K = 71 */
(PID.TID 0000.0001)                 6.954500000000000E+01,      /* K = 72 */
(PID.TID 0000.0001)                 7.433000000000000E+01,      /* K = 73 */
(PID.TID 0000.0001)                 7.947000000000000E+01,      /* K = 74 */
(PID.TID 0000.0001)                 8.486000000000000E+01,      /* K = 75 */
(PID.TID 0000.0001)                 9.041499999999999E+01,      /* K = 76 */
(PID.TID 0000.0001)                 9.606500000000000E+01,      /* K = 77 */
(PID.TID 0000.0001)                 1.017750000000000E+02,      /* K = 78 */
(PID.TID 0000.0001)                 1.075100000000000E+02,      /* K = 79 */
(PID.TID 0000.0001)                 1.132500000000000E+02,      /* K = 80 */
(PID.TID 0000.0001)                 1.189950000000000E+02,      /* K = 81 */
(PID.TID 0000.0001)                 1.247500000000000E+02,      /* K = 82 */
(PID.TID 0000.0001)                 1.305050000000000E+02,      /* K = 83 */
(PID.TID 0000.0001)                 1.362500000000000E+02,      /* K = 84 */
(PID.TID 0000.0001)                 1.419950000000000E+02,      /* K = 85 */
(PID.TID 0000.0001)                 1.477500000000000E+02,      /* K = 86 */
(PID.TID 0000.0001)                 1.535050000000000E+02,      /* K = 87 */
(PID.TID 0000.0001)                 1.592500000000000E+02,      /* K = 88 */
(PID.TID 0000.0001)                 1.649950000000000E+02,      /* K = 89 */
(PID.TID 0000.0001)                 1.707500000000000E+02,      /* K = 90 */
(PID.TID 0000.0001)                 1.765050000000000E+02,      /* K = 91 */
(PID.TID 0000.0001)                 1.822500000000000E+02,      /* K = 92 */
(PID.TID 0000.0001)                 1.879950000000000E+02,      /* K = 93 */
(PID.TID 0000.0001)                 1.937500000000000E+02,      /* K = 94 */
(PID.TID 0000.0001)                 1.995050000000000E+02,      /* K = 95 */
(PID.TID 0000.0001)                 2.052500000000000E+02,      /* K = 96 */
(PID.TID 0000.0001)                 2.109950000000000E+02,      /* K = 97 */
(PID.TID 0000.0001)                 2.167500000000000E+02,      /* K = 98 */
(PID.TID 0000.0001)                 2.225050000000000E+02,      /* K = 99 */
(PID.TID 0000.0001)                 2.282500000000000E+02,      /* K =100 */
(PID.TID 0000.0001)                 1.155600000000000E+02       /* K =101 */
(PID.TID 0000.0001)     ;
(PID.TID 0000.0001) drF =   /* W spacing ( units of r ) */
(PID.TID 0000.0001)    15 @  5.000000000000000E+00,             /* K =  1: 15 */
(PID.TID 0000.0001)     2 @  5.010000000000000E+00,             /* K = 16: 17 */
(PID.TID 0000.0001)                 5.020000000000000E+00,      /* K = 18 */
(PID.TID 0000.0001)                 5.040000000000000E+00,      /* K = 19 */
(PID.TID 0000.0001)                 5.070000000000000E+00,      /* K = 20 */
(PID.TID 0000.0001)                 5.120000000000000E+00,      /* K = 21 */
(PID.TID 0000.0001)                 5.200000000000000E+00,      /* K = 22 */
(PID.TID 0000.0001)                 5.310000000000000E+00,      /* K = 23 */
(PID.TID 0000.0001)                 5.490000000000000E+00,      /* K = 24 */
(PID.TID 0000.0001)                 5.720000000000000E+00,      /* K = 25 */
(PID.TID 0000.0001)                 6.040000000000000E+00,      /* K = 26 */
(PID.TID 0000.0001)                 6.450000000000000E+00,      /* K = 27 */
(PID.TID 0000.0001)                 6.970000000000000E+00,      /* K = 28 */
(PID.TID 0000.0001)                 7.620000000000000E+00,      /* K = 29 */
(PID.TID 0000.0001)                 8.420000000000000E+00,      /* K = 30 */
(PID.TID 0000.0001)                 9.359999999999999E+00,      /* K = 31 */
(PID.TID 0000.0001)                 1.046000000000000E+01,      /* K = 32 */
(PID.TID 0000.0001)                 1.172000000000000E+01,      /* K = 33 */
(PID.TID 0000.0001)                 1.313000000000000E+01,      /* K = 34 */
(PID.TID 0000.0001)                 1.470000000000000E+01,      /* K = 35 */
(PID.TID 0000.0001)                 1.640000000000000E+01,      /* K = 36 */
(PID.TID 0000.0001)                 1.824000000000000E+01,      /* K = 37 */
(PID.TID 0000.0001)                 2.018000000000000E+01,      /* K = 38 */
(PID.TID 0000.0001)                 2.221000000000000E+01,      /* K = 39 */
(PID.TID 0000.0001)                 2.429000000000000E+01,      /* K = 40 */
(PID.TID 0000.0001)                 2.643000000000000E+01,      /* K = 41 */
(PID.TID 0000.0001)                 2.857000000000000E+01,      /* K = 42 */
(PID.TID 0000.0001)                 3.071000000000000E+01,      /* K = 43 */
(PID.TID 0000.0001)                 3.279000000000000E+01,      /* K = 44 */
(PID.TID 0000.0001)                 3.482000000000000E+01,      /* K = 45 */
(PID.TID 0000.0001)                 3.676000000000000E+01,      /* K = 46 */
(PID.TID 0000.0001)                 3.860000000000000E+01,      /* K = 47 */
(PID.TID 0000.0001)                 4.030000000000000E+01,      /* K = 48 */
(PID.TID 0000.0001)                 4.187000000000000E+01,      /* K = 49 */
(PID.TID 0000.0001)                 4.328000000000000E+01,      /* K = 50 */
(PID.TID 0000.0001)                 4.454000000000000E+01,      /* K = 51 */
(PID.TID 0000.0001)                 4.564000000000000E+01,      /* K = 52 */
(PID.TID 0000.0001)                 4.658000000000000E+01,      /* K = 53 */
(PID.TID 0000.0001)                 4.738000000000000E+01,      /* K = 54 */
(PID.TID 0000.0001)                 4.803000000000000E+01,      /* K = 55 */
(PID.TID 0000.0001)                 4.855000000000000E+01,      /* K = 56 */
(PID.TID 0000.0001)                 4.896000000000000E+01,      /* K = 57 */
(PID.TID 0000.0001)                 4.929000000000000E+01,      /* K = 58 */
(PID.TID 0000.0001)                 4.953000000000000E+01,      /* K = 59 */
(PID.TID 0000.0001)                 4.972000000000000E+01,      /* K = 60 */
(PID.TID 0000.0001)                 4.990000000000000E+01,      /* K = 61 */
(PID.TID 0000.0001)                 5.011000000000000E+01,      /* K = 62 */
(PID.TID 0000.0001)                 5.041000000000000E+01,      /* K = 63 */
(PID.TID 0000.0001)                 5.092000000000000E+01,      /* K = 64 */
(PID.TID 0000.0001)                 5.169000000000000E+01,      /* K = 65 */
(PID.TID 0000.0001)                 5.287000000000000E+01,      /* K = 66 */
(PID.TID 0000.0001)                 5.454000000000000E+01,      /* K = 67 */
(PID.TID 0000.0001)                 5.679000000000000E+01,      /* K = 68 */
(PID.TID 0000.0001)                 5.967000000000000E+01,      /* K = 69 */
(PID.TID 0000.0001)                 6.316000000000000E+01,      /* K = 70 */
(PID.TID 0000.0001)                 6.726000000000001E+01,      /* K = 71 */
(PID.TID 0000.0001)                 7.183000000000000E+01,      /* K = 72 */
(PID.TID 0000.0001)                 7.683000000000000E+01,      /* K = 73 */
(PID.TID 0000.0001)                 8.211000000000000E+01,      /* K = 74 */
(PID.TID 0000.0001)                 8.761000000000000E+01,      /* K = 75 */
(PID.TID 0000.0001)                 9.322000000000000E+01,      /* K = 76 */
(PID.TID 0000.0001)                 9.891000000000000E+01,      /* K = 77 */
(PID.TID 0000.0001)                 1.046400000000000E+02,      /* K = 78 */
(PID.TID 0000.0001)                 1.103800000000000E+02,      /* K = 79 */
(PID.TID 0000.0001)                 1.161200000000000E+02,      /* K = 80 */
(PID.TID 0000.0001)                 1.218700000000000E+02,      /* K = 81 */
(PID.TID 0000.0001)                 1.276300000000000E+02,      /* K = 82 */
(PID.TID 0000.0001)                 1.333800000000000E+02,      /* K = 83 */
(PID.TID 0000.0001)                 1.391200000000000E+02,      /* K = 84 */
(PID.TID 0000.0001)                 1.448700000000000E+02,      /* K = 85 */
(PID.TID 0000.0001)                 1.506300000000000E+02,      /* K = 86 */
(PID.TID 0000.0001)                 1.563800000000000E+02,      /* K = 87 */
(PID.TID 0000.0001)                 1.621200000000000E+02,      /* K = 88 */
(PID.TID 0000.0001)                 1.678700000000000E+02,      /* K = 89 */
(PID.TID 0000.0001)                 1.736300000000000E+02,      /* K = 90 */
(PID.TID 0000.0001)                 1.793800000000000E+02,      /* K = 91 */
(PID.TID 0000.0001)                 1.851200000000000E+02,      /* K = 92 */
(PID.TID 0000.0001)                 1.908700000000000E+02,      /* K = 93 */
(PID.TID 0000.0001)                 1.966300000000000E+02,      /* K = 94 */
(PID.TID 0000.0001)                 2.023800000000000E+02,      /* K = 95 */
(PID.TID 0000.0001)                 2.081200000000000E+02,      /* K = 96 */
(PID.TID 0000.0001)                 2.138700000000000E+02,      /* K = 97 */
(PID.TID 0000.0001)                 2.196300000000000E+02,      /* K = 98 */
(PID.TID 0000.0001)                 2.253800000000000E+02,      /* K = 99 */
(PID.TID 0000.0001)                 2.311200000000000E+02       /* K =100 */
(PID.TID 0000.0001)     ;
(PID.TID 0000.0001) radius_fromHorizGrid = /* sphere Radius of input horiz. grid */
(PID.TID 0000.0001)                 6.370000000000000E+06
(PID.TID 0000.0001)     ;
(PID.TID 0000.0001) rSphere =  /* Radius ( ignored - cartesian, m - spherical ) */
(PID.TID 0000.0001)                 6.370000000000000E+06
(PID.TID 0000.0001)     ;
(PID.TID 0000.0001) deepAtmosphere = /* Deep/Shallow Atmosphere flag (True/False) */
(PID.TID 0000.0001)                   F
(PID.TID 0000.0001)     ;
(PID.TID 0000.0001) xC =  /* xC(:,1,:,1) : P-point X coord ( deg. or m if cartesian) */
(PID.TID 0000.0001)                -3.797916666666667E+01,      /* I =  1 */
(PID.TID 0000.0001)                -3.793750000000001E+01,      /* I =  2 */
(PID.TID 0000.0001)                -3.789583333333334E+01,      /* I =  3 */
(PID.TID 0000.0001)      . . .
(PID.TID 0000.0001)                -3.714583333333334E+01,      /* I = 21 */
(PID.TID 0000.0001)                -3.710416666666665E+01,      /* I = 22 */
(PID.TID 0000.0001)                -3.706250000000000E+01,      /* I = 23 */
(PID.TID 0000.0001)                -3.702083333333332E+01,      /* I = 24 */
(PID.TID 0000.0001)                -3.697916666666666E+01,      /* I = 25 */
(PID.TID 0000.0001)                -3.693750000000001E+01,      /* I = 26 */
(PID.TID 0000.0001)      . . .
(PID.TID 0000.0001)                -3.622916666666667E+01,      /* I = 43 */
(PID.TID 0000.0001)                -3.618749999999999E+01,      /* I = 44 */
(PID.TID 0000.0001)                -3.614583333333332E+01,      /* I = 45 */
(PID.TID 0000.0001)                -3.610416666666667E+01,      /* I = 46 */
(PID.TID 0000.0001)                -3.606249999999999E+01,      /* I = 47 */
(PID.TID 0000.0001)                -3.602083333333334E+01,      /* I = 48 */
(PID.TID 0000.0001)      . . .
(PID.TID 0000.0001)                -3.531250000000000E+01,      /* I = 65 */
(PID.TID 0000.0001)                -3.527083333333334E+01,      /* I = 66 */
(PID.TID 0000.0001)                -3.522916666666666E+01,      /* I = 67 */
(PID.TID 0000.0001)                -3.518750000000001E+01,      /* I = 68 */
(PID.TID 0000.0001)                -3.514583333333334E+01,      /* I = 69 */
(PID.TID 0000.0001)                -3.510416666666666E+01,      /* I = 70 */
(PID.TID 0000.0001)      . . .
(PID.TID 0000.0001)                -3.435416666666666E+01,      /* I = 88 */
(PID.TID 0000.0001)                -3.431250000000000E+01,      /* I = 89 */
(PID.TID 0000.0001)                -3.427083333333334E+01       /* I = 90 */
(PID.TID 0000.0001)     ;
(PID.TID 0000.0001) yC =  /* yC(1,:,1,:) : P-point Y coord ( deg. or m if cartesian) */
(PID.TID 0000.0001)                 2.666717234476562E+01,      /* J =  1 */
(PID.TID 0000.0001)                 2.670139886784720E+01,      /* J =  2 */
(PID.TID 0000.0001)                 2.673561527194147E+01,      /* J =  3 */
(PID.TID 0000.0001)      . . .
(PID.TID 0000.0001)                 2.734977199501746E+01,      /* J = 21 */
(PID.TID 0000.0001)                 2.738379477629134E+01,      /* J = 22 */
(PID.TID 0000.0001)                 2.741780729630532E+01,      /* J = 23 */
(PID.TID 0000.0001)                 2.745180954811105E+01,      /* J = 24 */
(PID.TID 0000.0001)                 2.748580152477592E+01,      /* J = 25 */
(PID.TID 0000.0001)                 2.751978321938307E+01,      /* J = 26 */
(PID.TID 0000.0001)      . . .
(PID.TID 0000.0001)                 2.809589224657305E+01,      /* J = 43 */
(PID.TID 0000.0001)                 2.812968769927133E+01,      /* J = 44 */
(PID.TID 0000.0001)                 2.816347274147650E+01,      /* J = 45 */
(PID.TID 0000.0001)                 2.819724736658575E+01,      /* J = 46 */
(PID.TID 0000.0001)                 2.823101156801198E+01,      /* J = 47 */
(PID.TID 0000.0001)                 2.826476533918369E+01,      /* J = 48 */
(PID.TID 0000.0001)      . . .
(PID.TID 0000.0001)                 2.883697732829152E+01,      /* J = 65 */
(PID.TID 0000.0001)                 2.887054224901064E+01,      /* J = 66 */
(PID.TID 0000.0001)                 2.890409661759102E+01,      /* J = 67 */
(PID.TID 0000.0001)                 2.893764042777396E+01,      /* J = 68 */
(PID.TID 0000.0001)                 2.897117367331634E+01,      /* J = 69 */
(PID.TID 0000.0001)                 2.900469634799065E+01,      /* J = 70 */
(PID.TID 0000.0001)      . . .
(PID.TID 0000.0001)                 2.960628986753825E+01,      /* J = 88 */
(PID.TID 0000.0001)                 2.963961053319994E+01,      /* J = 89 */
(PID.TID 0000.0001)                 2.967292050671132E+01       /* J = 90 */
(PID.TID 0000.0001)     ;
(PID.TID 0000.0001) rcoord = /* P-point R coordinate (  units of r ) */
(PID.TID 0000.0001)                -2.500000000000000E+00,      /* K =  1 */
(PID.TID 0000.0001)                -7.500000000000000E+00,      /* K =  2 */
(PID.TID 0000.0001)                -1.250000000000000E+01,      /* K =  3 */
(PID.TID 0000.0001)                -1.750000000000000E+01,      /* K =  4 */
(PID.TID 0000.0001)                -2.250000000000000E+01,      /* K =  5 */
(PID.TID 0000.0001)                -2.750000000000000E+01,      /* K =  6 */
(PID.TID 0000.0001)                -3.250000000000000E+01,      /* K =  7 */
(PID.TID 0000.0001)                -3.750000000000000E+01,      /* K =  8 */
(PID.TID 0000.0001)                -4.250000000000000E+01,      /* K =  9 */
(PID.TID 0000.0001)                -4.750000000000000E+01,      /* K = 10 */
(PID.TID 0000.0001)                -5.250000000000000E+01,      /* K = 11 */
(PID.TID 0000.0001)                -5.750000000000000E+01,      /* K = 12 */
(PID.TID 0000.0001)                -6.250000000000000E+01,      /* K = 13 */
(PID.TID 0000.0001)                -6.750000000000000E+01,      /* K = 14 */
(PID.TID 0000.0001)                -7.250000000000000E+01,      /* K = 15 */
(PID.TID 0000.0001)                -7.750500000000000E+01,      /* K = 16 */
(PID.TID 0000.0001)                -8.251500000000000E+01,      /* K = 17 */
(PID.TID 0000.0001)                -8.753000000000000E+01,      /* K = 18 */
(PID.TID 0000.0001)                -9.256000000000000E+01,      /* K = 19 */
(PID.TID 0000.0001)                -9.761500000000001E+01,      /* K = 20 */
(PID.TID 0000.0001)                -1.027100000000000E+02,      /* K = 21 */
(PID.TID 0000.0001)                -1.078700000000000E+02,      /* K = 22 */
(PID.TID 0000.0001)                -1.131250000000000E+02,      /* K = 23 */
(PID.TID 0000.0001)                -1.185250000000000E+02,      /* K = 24 */
(PID.TID 0000.0001)                -1.241300000000000E+02,      /* K = 25 */
(PID.TID 0000.0001)                -1.300100000000000E+02,      /* K = 26 */
(PID.TID 0000.0001)                -1.362550000000000E+02,      /* K = 27 */
(PID.TID 0000.0001)                -1.429650000000000E+02,      /* K = 28 */
(PID.TID 0000.0001)                -1.502600000000000E+02,      /* K = 29 */
(PID.TID 0000.0001)                -1.582800000000000E+02,      /* K = 30 */
(PID.TID 0000.0001)                -1.671700000000000E+02,      /* K = 31 */
(PID.TID 0000.0001)                -1.770800000000000E+02,      /* K = 32 */
(PID.TID 0000.0001)                -1.881700000000000E+02,      /* K = 33 */
(PID.TID 0000.0001)                -2.005950000000000E+02,      /* K = 34 */
(PID.TID 0000.0001)                -2.145100000000000E+02,      /* K = 35 */
(PID.TID 0000.0001)                -2.300600000000000E+02,      /* K = 36 */
(PID.TID 0000.0001)                -2.473800000000000E+02,      /* K = 37 */
(PID.TID 0000.0001)                -2.665900000000000E+02,      /* K = 38 */
(PID.TID 0000.0001)                -2.877850000000000E+02,      /* K = 39 */
(PID.TID 0000.0001)                -3.110350000000000E+02,      /* K = 40 */
(PID.TID 0000.0001)                -3.363950000000000E+02,      /* K = 41 */
(PID.TID 0000.0001)                -3.638950000000000E+02,      /* K = 42 */
(PID.TID 0000.0001)                -3.935350000000000E+02,      /* K = 43 */
(PID.TID 0000.0001)                -4.252850000000000E+02,      /* K = 44 */
(PID.TID 0000.0001)                -4.590900000000000E+02,      /* K = 45 */
(PID.TID 0000.0001)                -4.948800000000001E+02,      /* K = 46 */
(PID.TID 0000.0001)                -5.325600000000001E+02,      /* K = 47 */
(PID.TID 0000.0001)                -5.720100000000001E+02,      /* K = 48 */
(PID.TID 0000.0001)                -6.130950000000001E+02,      /* K = 49 */
(PID.TID 0000.0001)                -6.556700000000002E+02,      /* K = 50 */
(PID.TID 0000.0001)                -6.995800000000002E+02,      /* K = 51 */
(PID.TID 0000.0001)                -7.446700000000002E+02,      /* K = 52 */
(PID.TID 0000.0001)                -7.907800000000002E+02,      /* K = 53 */
(PID.TID 0000.0001)                -8.377600000000002E+02,      /* K = 54 */
(PID.TID 0000.0001)                -8.854650000000003E+02,      /* K = 55 */
(PID.TID 0000.0001)                -9.337550000000002E+02,      /* K = 56 */
(PID.TID 0000.0001)                -9.825100000000002E+02,      /* K = 57 */
(PID.TID 0000.0001)                -1.031635000000000E+03,      /* K = 58 */
(PID.TID 0000.0001)                -1.081045000000000E+03,      /* K = 59 */
(PID.TID 0000.0001)                -1.130670000000000E+03,      /* K = 60 */
(PID.TID 0000.0001)                -1.180480000000000E+03,      /* K = 61 */
(PID.TID 0000.0001)                -1.230485000000000E+03,      /* K = 62 */
(PID.TID 0000.0001)                -1.280745000000000E+03,      /* K = 63 */
(PID.TID 0000.0001)                -1.331410000000000E+03,      /* K = 64 */
(PID.TID 0000.0001)                -1.382715000000000E+03,      /* K = 65 */
(PID.TID 0000.0001)                -1.434995000000000E+03,      /* K = 66 */
(PID.TID 0000.0001)                -1.488700000000000E+03,      /* K = 67 */
(PID.TID 0000.0001)                -1.544365000000000E+03,      /* K = 68 */
(PID.TID 0000.0001)                -1.602595000000000E+03,      /* K = 69 */
(PID.TID 0000.0001)                -1.664010000000000E+03,      /* K = 70 */
(PID.TID 0000.0001)                -1.729220000000000E+03,      /* K = 71 */
(PID.TID 0000.0001)                -1.798765000000000E+03,      /* K = 72 */
(PID.TID 0000.0001)                -1.873095000000000E+03,      /* K = 73 */
(PID.TID 0000.0001)                -1.952565000000000E+03,      /* K = 74 */
(PID.TID 0000.0001)                -2.037425000000000E+03,      /* K = 75 */
(PID.TID 0000.0001)                -2.127840000000000E+03,      /* K = 76 */
(PID.TID 0000.0001)                -2.223905000000000E+03,      /* K = 77 */
(PID.TID 0000.0001)                -2.325680000000000E+03,      /* K = 78 */
(PID.TID 0000.0001)                -2.433190000000001E+03,      /* K = 79 */
(PID.TID 0000.0001)                -2.546440000000001E+03,      /* K = 80 */
(PID.TID 0000.0001)                -2.665435000000000E+03,      /* K = 81 */
(PID.TID 0000.0001)                -2.790185000000000E+03,      /* K = 82 */
(PID.TID 0000.0001)                -2.920690000000001E+03,      /* K = 83 */
(PID.TID 0000.0001)                -3.056940000000001E+03,      /* K = 84 */
(PID.TID 0000.0001)                -3.198935000000000E+03,      /* K = 85 */
(PID.TID 0000.0001)                -3.346685000000000E+03,      /* K = 86 */
(PID.TID 0000.0001)                -3.500190000000001E+03,      /* K = 87 */
(PID.TID 0000.0001)                -3.659440000000001E+03,      /* K = 88 */
(PID.TID 0000.0001)                -3.824435000000000E+03,      /* K = 89 */
(PID.TID 0000.0001)                -3.995185000000000E+03,      /* K = 90 */
(PID.TID 0000.0001)                -4.171690000000001E+03,      /* K = 91 */
(PID.TID 0000.0001)                -4.353940000000001E+03,      /* K = 92 */
(PID.TID 0000.0001)                -4.541935000000000E+03,      /* K = 93 */
(PID.TID 0000.0001)                -4.735685000000000E+03,      /* K = 94 */
(PID.TID 0000.0001)                -4.935190000000001E+03,      /* K = 95 */
(PID.TID 0000.0001)                -5.140440000000001E+03,      /* K = 96 */
(PID.TID 0000.0001)                -5.351435000000000E+03,      /* K = 97 */
(PID.TID 0000.0001)                -5.568185000000000E+03,      /* K = 98 */
(PID.TID 0000.0001)                -5.790690000000001E+03,      /* K = 99 */
(PID.TID 0000.0001)                -6.018940000000001E+03       /* K =100 */
(PID.TID 0000.0001)     ;
(PID.TID 0000.0001) rF =   /* W-Interf. R coordinate (  units of r ) */
(PID.TID 0000.0001)                 0.000000000000000E+00,      /* K =  1 */
(PID.TID 0000.0001)                -5.000000000000000E+00,      /* K =  2 */
(PID.TID 0000.0001)                -1.000000000000000E+01,      /* K =  3 */
(PID.TID 0000.0001)                -1.500000000000000E+01,      /* K =  4 */
(PID.TID 0000.0001)                -2.000000000000000E+01,      /* K =  5 */
(PID.TID 0000.0001)                -2.500000000000000E+01,      /* K =  6 */
(PID.TID 0000.0001)                -3.000000000000000E+01,      /* K =  7 */
(PID.TID 0000.0001)                -3.500000000000000E+01,      /* K =  8 */
(PID.TID 0000.0001)                -4.000000000000000E+01,      /* K =  9 */
(PID.TID 0000.0001)                -4.500000000000000E+01,      /* K = 10 */
(PID.TID 0000.0001)                -5.000000000000000E+01,      /* K = 11 */
(PID.TID 0000.0001)                -5.500000000000000E+01,      /* K = 12 */
(PID.TID 0000.0001)                -6.000000000000000E+01,      /* K = 13 */
(PID.TID 0000.0001)                -6.500000000000000E+01,      /* K = 14 */
(PID.TID 0000.0001)                -7.000000000000000E+01,      /* K = 15 */
(PID.TID 0000.0001)                -7.500000000000000E+01,      /* K = 16 */
(PID.TID 0000.0001)                -8.001000000000001E+01,      /* K = 17 */
(PID.TID 0000.0001)                -8.502000000000001E+01,      /* K = 18 */
(PID.TID 0000.0001)                -9.004000000000001E+01,      /* K = 19 */
(PID.TID 0000.0001)                -9.508000000000001E+01,      /* K = 20 */
(PID.TID 0000.0001)                -1.001500000000000E+02,      /* K = 21 */
(PID.TID 0000.0001)                -1.052700000000000E+02,      /* K = 22 */
(PID.TID 0000.0001)                -1.104700000000000E+02,      /* K = 23 */
(PID.TID 0000.0001)                -1.157800000000000E+02,      /* K = 24 */
(PID.TID 0000.0001)                -1.212700000000000E+02,      /* K = 25 */
(PID.TID 0000.0001)                -1.269900000000000E+02,      /* K = 26 */
(PID.TID 0000.0001)                -1.330300000000000E+02,      /* K = 27 */
(PID.TID 0000.0001)                -1.394800000000000E+02,      /* K = 28 */
(PID.TID 0000.0001)                -1.464500000000000E+02,      /* K = 29 */
(PID.TID 0000.0001)                -1.540700000000000E+02,      /* K = 30 */
(PID.TID 0000.0001)                -1.624900000000000E+02,      /* K = 31 */
(PID.TID 0000.0001)                -1.718500000000000E+02,      /* K = 32 */
(PID.TID 0000.0001)                -1.823100000000000E+02,      /* K = 33 */
(PID.TID 0000.0001)                -1.940300000000000E+02,      /* K = 34 */
(PID.TID 0000.0001)                -2.071600000000000E+02,      /* K = 35 */
(PID.TID 0000.0001)                -2.218600000000000E+02,      /* K = 36 */
(PID.TID 0000.0001)                -2.382600000000000E+02,      /* K = 37 */
(PID.TID 0000.0001)                -2.564999999999999E+02,      /* K = 38 */
(PID.TID 0000.0001)                -2.766799999999999E+02,      /* K = 39 */
(PID.TID 0000.0001)                -2.988899999999999E+02,      /* K = 40 */
(PID.TID 0000.0001)                -3.231799999999999E+02,      /* K = 41 */
(PID.TID 0000.0001)                -3.496100000000000E+02,      /* K = 42 */
(PID.TID 0000.0001)                -3.781799999999999E+02,      /* K = 43 */
(PID.TID 0000.0001)                -4.088899999999999E+02,      /* K = 44 */
(PID.TID 0000.0001)                -4.416799999999999E+02,      /* K = 45 */
(PID.TID 0000.0001)                -4.764999999999999E+02,      /* K = 46 */
(PID.TID 0000.0001)                -5.132600000000000E+02,      /* K = 47 */
(PID.TID 0000.0001)                -5.518600000000000E+02,      /* K = 48 */
(PID.TID 0000.0001)                -5.921600000000000E+02,      /* K = 49 */
(PID.TID 0000.0001)                -6.340300000000000E+02,      /* K = 50 */
(PID.TID 0000.0001)                -6.773099999999999E+02,      /* K = 51 */
(PID.TID 0000.0001)                -7.218499999999999E+02,      /* K = 52 */
(PID.TID 0000.0001)                -7.674899999999999E+02,      /* K = 53 */
(PID.TID 0000.0001)                -8.140699999999999E+02,      /* K = 54 */
(PID.TID 0000.0001)                -8.614499999999999E+02,      /* K = 55 */
(PID.TID 0000.0001)                -9.094799999999999E+02,      /* K = 56 */
(PID.TID 0000.0001)                -9.580299999999999E+02,      /* K = 57 */
(PID.TID 0000.0001)                -1.006990000000000E+03,      /* K = 58 */
(PID.TID 0000.0001)                -1.056280000000000E+03,      /* K = 59 */
(PID.TID 0000.0001)                -1.105810000000000E+03,      /* K = 60 */
(PID.TID 0000.0001)                -1.155530000000000E+03,      /* K = 61 */
(PID.TID 0000.0001)                -1.205430000000000E+03,      /* K = 62 */
(PID.TID 0000.0001)                -1.255540000000000E+03,      /* K = 63 */
(PID.TID 0000.0001)                -1.305950000000000E+03,      /* K = 64 */
(PID.TID 0000.0001)                -1.356870000000000E+03,      /* K = 65 */
(PID.TID 0000.0001)                -1.408560000000000E+03,      /* K = 66 */
(PID.TID 0000.0001)                -1.461430000000000E+03,      /* K = 67 */
(PID.TID 0000.0001)                -1.515970000000000E+03,      /* K = 68 */
(PID.TID 0000.0001)                -1.572760000000000E+03,      /* K = 69 */
(PID.TID 0000.0001)                -1.632430000000000E+03,      /* K = 70 */
(PID.TID 0000.0001)                -1.695590000000000E+03,      /* K = 71 */
(PID.TID 0000.0001)                -1.762850000000000E+03,      /* K = 72 */
(PID.TID 0000.0001)                -1.834680000000000E+03,      /* K = 73 */
(PID.TID 0000.0001)                -1.911510000000000E+03,      /* K = 74 */
(PID.TID 0000.0001)                -1.993620000000000E+03,      /* K = 75 */
(PID.TID 0000.0001)                -2.081230000000000E+03,      /* K = 76 */
(PID.TID 0000.0001)                -2.174450000000000E+03,      /* K = 77 */
(PID.TID 0000.0001)                -2.273360000000000E+03,      /* K = 78 */
(PID.TID 0000.0001)                -2.378000000000000E+03,      /* K = 79 */
(PID.TID 0000.0001)                -2.488380000000000E+03,      /* K = 80 */
(PID.TID 0000.0001)                -2.604500000000000E+03,      /* K = 81 */
(PID.TID 0000.0001)                -2.726369999999999E+03,      /* K = 82 */
(PID.TID 0000.0001)                -2.854000000000000E+03,      /* K = 83 */
(PID.TID 0000.0001)                -2.987380000000000E+03,      /* K = 84 */
(PID.TID 0000.0001)                -3.126500000000000E+03,      /* K = 85 */
(PID.TID 0000.0001)                -3.271369999999999E+03,      /* K = 86 */
(PID.TID 0000.0001)                -3.422000000000000E+03,      /* K = 87 */
(PID.TID 0000.0001)                -3.578380000000000E+03,      /* K = 88 */
(PID.TID 0000.0001)                -3.740500000000000E+03,      /* K = 89 */
(PID.TID 0000.0001)                -3.908369999999999E+03,      /* K = 90 */
(PID.TID 0000.0001)                -4.082000000000000E+03,      /* K = 91 */
(PID.TID 0000.0001)                -4.261379999999999E+03,      /* K = 92 */
(PID.TID 0000.0001)                -4.446499999999999E+03,      /* K = 93 */
(PID.TID 0000.0001)                -4.637369999999999E+03,      /* K = 94 */
(PID.TID 0000.0001)                -4.833999999999999E+03,      /* K = 95 */
(PID.TID 0000.0001)                -5.036379999999999E+03,      /* K = 96 */
(PID.TID 0000.0001)                -5.244499999999999E+03,      /* K = 97 */
(PID.TID 0000.0001)                -5.458369999999999E+03,      /* K = 98 */
(PID.TID 0000.0001)                -5.677999999999999E+03,      /* K = 99 */
(PID.TID 0000.0001)                -5.903379999999999E+03,      /* K =100 */
(PID.TID 0000.0001)                -6.134499999999999E+03       /* K =101 */
(PID.TID 0000.0001)     ;
(PID.TID 0000.0001) deepFacC = /* deep-model grid factor @ cell-Center (-) */
(PID.TID 0000.0001)   100 @  1.000000000000000E+00              /* K =  1:100 */
(PID.TID 0000.0001)     ;
(PID.TID 0000.0001) deepFacF = /* deep-model grid factor @ W-Interface (-) */
(PID.TID 0000.0001)   101 @  1.000000000000000E+00              /* K =  1:101 */
(PID.TID 0000.0001)     ;
(PID.TID 0000.0001) rVel2wUnit = /* convert units: rVel -> wSpeed (=1 if z-coord)*/
(PID.TID 0000.0001)   101 @  1.000000000000000E+00              /* K =  1:101 */
(PID.TID 0000.0001)     ;
(PID.TID 0000.0001) wUnit2rVel = /* convert units: wSpeed -> rVel (=1 if z-coord)*/
(PID.TID 0000.0001)   101 @  1.000000000000000E+00              /* K =  1:101 */
(PID.TID 0000.0001)     ;
(PID.TID 0000.0001) dBdrRef = /* Vertical grad. of reference buoyancy [(m/s/r)^2] */
(PID.TID 0000.0001)     5 @  0.000000000000000E+00,             /* K =  1:  5 */
(PID.TID 0000.0001)                 9.694282843778342E-06,      /* K =  6 */
(PID.TID 0000.0001)                 2.426513223807763E-05,      /* K =  7 */
(PID.TID 0000.0001)                 1.452975530153167E-05,      /* K =  8 */
(PID.TID 0000.0001)                 9.681498625854328E-06,      /* K =  9 */
(PID.TID 0000.0001)                 4.842099844624020E-05,      /* K = 10 */
(PID.TID 0000.0001)                 6.280856330023614E-05,      /* K = 11 */
(PID.TID 0000.0001)                 8.185617076656702E-05,      /* K = 12 */
(PID.TID 0000.0001)                 1.295252644691406E-04,      /* K = 13 */
(PID.TID 0000.0001)                 1.095351351384002E-04,      /* K = 14 */
(PID.TID 0000.0001)                 1.329169312007239E-04,      /* K = 15 */
(PID.TID 0000.0001)                 1.367041979360881E-04,      /* K = 16 */
(PID.TID 0000.0001)                 1.211727126593573E-04,      /* K = 17 */
(PID.TID 0000.0001)                 1.302265701121417E-04,      /* K = 18 */
(PID.TID 0000.0001)                 1.190854314588815E-04,      /* K = 19 */
(PID.TID 0000.0001)                 1.132023267377615E-04,      /* K = 20 */
(PID.TID 0000.0001)                 1.071632265654582E-04,      /* K = 21 */
(PID.TID 0000.0001)                 1.051393672457803E-04,      /* K = 22 */
(PID.TID 0000.0001)                 1.025752720636568E-04,      /* K = 23 */
(PID.TID 0000.0001)                 9.917395824143918E-05,      /* K = 24 */
(PID.TID 0000.0001)                 9.104030067387556E-05,      /* K = 25 */
(PID.TID 0000.0001)                 8.624441260795840E-05,      /* K = 26 */
(PID.TID 0000.0001)                 8.413036901537412E-05,      /* K = 27 */
(PID.TID 0000.0001)                 6.366728012651445E-05,      /* K = 28 */
(PID.TID 0000.0001)                 5.812092618380799E-05,      /* K = 29 */
(PID.TID 0000.0001)                 5.507951137016039E-05,      /* K = 30 */
(PID.TID 0000.0001)                 4.695510592930360E-05,      /* K = 31 */
(PID.TID 0000.0001)                 4.596409715692217E-05,      /* K = 32 */
(PID.TID 0000.0001)                 4.072795425761271E-05,      /* K = 33 */
(PID.TID 0000.0001)                 3.175298295526856E-05,      /* K = 34 */
(PID.TID 0000.0001)                 3.093452381022950E-05,      /* K = 35 */
(PID.TID 0000.0001)                 2.864003459600112E-05,      /* K = 36 */
(PID.TID 0000.0001)                 2.767315329576147E-05,      /* K = 37 */
(PID.TID 0000.0001)                 2.463000191580109E-05,      /* K = 38 */
(PID.TID 0000.0001)                 2.475053767167416E-05,      /* K = 39 */
(PID.TID 0000.0001)                 1.906506350221241E-05,      /* K = 40 */
(PID.TID 0000.0001)                 1.865582618722828E-05,      /* K = 41 */
(PID.TID 0000.0001)                 1.823366094760355E-05,      /* K = 42 */
(PID.TID 0000.0001)                 1.471037885515795E-05,      /* K = 43 */
(PID.TID 0000.0001)                 1.630603945735049E-05,      /* K = 44 */
(PID.TID 0000.0001)                 1.384745352787863E-05,      /* K = 45 */
(PID.TID 0000.0001)                 1.226594411185851E-05,      /* K = 46 */
(PID.TID 0000.0001)                 1.225310460290910E-05,      /* K = 47 */
(PID.TID 0000.0001)                 1.223011113144029E-05,      /* K = 48 */
(PID.TID 0000.0001)                 1.061638239990844E-05,      /* K = 49 */
(PID.TID 0000.0001)                 1.070650633014499E-05,      /* K = 50 */
(PID.TID 0000.0001)                 9.357472423340062E-06,      /* K = 51 */
(PID.TID 0000.0001)                 9.812756875994976E-06,      /* K = 52 */
(PID.TID 0000.0001)                 9.364680965538371E-06,      /* K = 53 */
(PID.TID 0000.0001)                 6.430982300518885E-06,      /* K = 54 */
(PID.TID 0000.0001)                 8.970058816087760E-06,      /* K = 55 */
(PID.TID 0000.0001)                 8.398462027768182E-06,      /* K = 56 */
(PID.TID 0000.0001)                 7.294531901104187E-06,      /* K = 57 */
(PID.TID 0000.0001)                 8.642565592484861E-06,      /* K = 58 */
(PID.TID 0000.0001)                 6.405731826441176E-06,      /* K = 59 */
(PID.TID 0000.0001)                 8.743452988220992E-06,      /* K = 60 */
(PID.TID 0000.0001)                 6.590306221026928E-06,      /* K = 61 */
(PID.TID 0000.0001)                 7.462277694900194E-06,      /* K = 62 */
(PID.TID 0000.0001)                 5.625478499738029E-06,      /* K = 63 */
(PID.TID 0000.0001)                 6.494457456351866E-06,      /* K = 64 */
(PID.TID 0000.0001)                 5.872364624284492E-06,      /* K = 65 */
(PID.TID 0000.0001)                 5.495436518643386E-06,      /* K = 66 */
(PID.TID 0000.0001)                 5.094601592541214E-06,      /* K = 67 */
(PID.TID 0000.0001)                 4.437172619322077E-06,      /* K = 68 */
(PID.TID 0000.0001)                 4.016940542409763E-06,      /* K = 69 */
(PID.TID 0000.0001)                 4.028908121728164E-06,      /* K = 70 */
(PID.TID 0000.0001)                 2.246388502686123E-06,      /* K = 71 */
(PID.TID 0000.0001)                 2.998142894531076E-06,      /* K = 72 */
(PID.TID 0000.0001)                 2.815413573924730E-06,      /* K = 73 */
(PID.TID 0000.0001)                 2.814329879263964E-06,      /* K = 74 */
(PID.TID 0000.0001)                 2.327158902006369E-06,      /* K = 75 */
(PID.TID 0000.0001)                 1.523559191918705E-06,      /* K = 76 */
(PID.TID 0000.0001)                 2.223754279938488E-06,      /* K = 77 */
(PID.TID 0000.0001)                 1.243572598777220E-06,      /* K = 78 */
(PID.TID 0000.0001)                 1.884009398486976E-06,      /* K = 79 */
(PID.TID 0000.0001)                 1.146309977456730E-06,      /* K = 80 */
(PID.TID 0000.0001)                 9.836409573498765E-07,      /* K = 81 */
(PID.TID 0000.0001)                 1.666564082034753E-06,      /* K = 82 */
(PID.TID 0000.0001)                 8.096789666921265E-07,      /* K = 83 */
(PID.TID 0000.0001)                 9.015806361848934E-07,      /* K = 84 */
(PID.TID 0000.0001)                 9.899996711216439E-07,      /* K = 85 */
(PID.TID 0000.0001)                 1.360959195968683E-06,      /* K = 86 */
(PID.TID 0000.0001)                 3.633635105266278E-07,      /* K = 87 */
(PID.TID 0000.0001)                 7.257552276248978E-07,      /* K = 88 */
(PID.TID 0000.0001)                 8.165089567519712E-07,      /* K = 89 */
(PID.TID 0000.0001)                 7.043987264958734E-07,      /* K = 90 */
(PID.TID 0000.0001)                 6.956983617110328E-07,      /* K = 91 */
(PID.TID 0000.0001)                 6.880703959048398E-07,      /* K = 92 */
(PID.TID 0000.0001)                 6.813676413074075E-07,      /* K = 93 */
(PID.TID 0000.0001)                 6.754628223828996E-07,      /* K = 94 */
(PID.TID 0000.0001)                 3.049729588883796E-07,      /* K = 95 */
(PID.TID 0000.0001)                 6.657955553385863E-07,      /* K = 96 */
(PID.TID 0000.0001)                 5.675084375793845E-07,      /* K = 97 */
(PID.TID 0000.0001)                 3.767262833194376E-07,      /* K = 98 */
(PID.TID 0000.0001)                 2.816808424830599E-07,      /* K = 99 */
(PID.TID 0000.0001)                 1.873891169846885E-07       /* K =100 */
(PID.TID 0000.0001)     ;
(PID.TID 0000.0001) rotateGrid = /* use rotated grid ( True/False ) */
(PID.TID 0000.0001)                   F
(PID.TID 0000.0001)     ;
(PID.TID 0000.0001) phiEuler = /* Euler angle, rotation about original z-coordinate [rad] */
(PID.TID 0000.0001)                 0.000000000000000E+00
(PID.TID 0000.0001)     ;
(PID.TID 0000.0001) thetaEuler = /* Euler angle, rotation about new x-coordinate [rad] */
(PID.TID 0000.0001)                 0.000000000000000E+00
(PID.TID 0000.0001)     ;
(PID.TID 0000.0001) psiEuler = /* Euler angle, rotation about new z-coordinate [rad] */
(PID.TID 0000.0001)                 0.000000000000000E+00
(PID.TID 0000.0001)     ;
(PID.TID 0000.0001) dxF =  /* dxF(:,1,:,1) ( units: m ) */
(PID.TID 0000.0001)                 4.139640777164279E+03,      /* I =  1 */
(PID.TID 0000.0001)                 4.139640777164910E+03,      /* I =  2 */
(PID.TID 0000.0001)                 4.139640777166174E+03,      /* I =  3 */
(PID.TID 0000.0001)      . . .
(PID.TID 0000.0001)                 4.139640777164277E+03,      /* I = 21 */
(PID.TID 0000.0001)                 4.139640777165542E+03,      /* I = 22 */
(PID.TID 0000.0001)                 4.139640777164910E+03,      /* I = 23 */
(PID.TID 0000.0001)                 4.139640777166173E+03,      /* I = 24 */
(PID.TID 0000.0001)                 4.139640777163015E+03,      /* I = 25 */
(PID.TID 0000.0001)                 4.139640777164910E+03,      /* I = 26 */
(PID.TID 0000.0001)      . . .
(PID.TID 0000.0001)                 4.139640777164910E+03,      /* I = 43 */
(PID.TID 0000.0001)                 4.139640777164910E+03,      /* I = 44 */
(PID.TID 0000.0001)                 4.139640777165542E+03,      /* I = 45 */
(PID.TID 0000.0001)                 4.139640777164278E+03,      /* I = 46 */
(PID.TID 0000.0001)                 4.139640777165541E+03,      /* I = 47 */
(PID.TID 0000.0001)                 4.139640777165542E+03,      /* I = 48 */
(PID.TID 0000.0001)      . . .
(PID.TID 0000.0001)                 4.139640777166174E+03,      /* I = 65 */
(PID.TID 0000.0001)                 4.139640777165541E+03,      /* I = 66 */
(PID.TID 0000.0001)                 4.139640777166174E+03,      /* I = 67 */
(PID.TID 0000.0001)                 4.139640777163646E+03,      /* I = 68 */
(PID.TID 0000.0001)                 4.139640777166174E+03,      /* I = 69 */
(PID.TID 0000.0001)                 4.139640777161118E+03,      /* I = 70 */
(PID.TID 0000.0001)      . . .
(PID.TID 0000.0001)                 4.139640777167439E+03,      /* I = 88 */
(PID.TID 0000.0001)                 4.139640777164278E+03,      /* I = 89 */
(PID.TID 0000.0001)                 4.139640777166174E+03       /* I = 90 */
(PID.TID 0000.0001)     ;
(PID.TID 0000.0001) dxF =  /* dxF(1,:,1,:) ( units: m ) */
(PID.TID 0000.0001)                 4.139640777164279E+03,      /* J =  1 */
(PID.TID 0000.0001)                 4.138398084959406E+03,      /* J =  2 */
(PID.TID 0000.0001)                 4.137154284035478E+03,      /* J =  3 */
(PID.TID 0000.0001)      . . .
(PID.TID 0000.0001)                 4.114578576882417E+03,      /* J = 21 */
(PID.TID 0000.0001)                 4.113314093659286E+03,      /* J = 22 */
(PID.TID 0000.0001)                 4.112048542065176E+03,      /* J = 23 */
(PID.TID 0000.0001)                 4.110781924117386E+03,      /* J = 24 */
(PID.TID 0000.0001)                 4.109514241831870E+03,      /* J = 25 */
(PID.TID 0000.0001)                 4.108245497223221E+03,      /* J = 26 */
(PID.TID 0000.0001)      . . .
(PID.TID 0000.0001)                 4.086516257087040E+03,      /* J = 43 */
(PID.TID 0000.0001)                 4.085228735360856E+03,      /* J = 44 */
(PID.TID 0000.0001)                 4.083940189598737E+03,      /* J = 45 */
(PID.TID 0000.0001)                 4.082650621811945E+03,      /* J = 46 */
(PID.TID 0000.0001)                 4.081360034015881E+03,      /* J = 47 */
(PID.TID 0000.0001)                 4.080068428224453E+03,      /* J = 48 */
(PID.TID 0000.0001)      . . .
(PID.TID 0000.0001)                 4.057957325182628E+03,      /* J = 65 */
(PID.TID 0000.0001)                 4.056647739302049E+03,      /* J = 66 */
(PID.TID 0000.0001)                 4.055337173610364E+03,      /* J = 67 */
(PID.TID 0000.0001)                 4.054025630118003E+03,      /* J = 68 */
(PID.TID 0000.0001)                 4.052713110829458E+03,      /* J = 69 */
(PID.TID 0000.0001)                 4.051399617750104E+03,      /* J = 70 */
(PID.TID 0000.0001)      . . .
(PID.TID 0000.0001)                 4.027592508695046E+03,      /* J = 88 */
(PID.TID 0000.0001)                 4.026260894216652E+03,      /* J = 89 */
(PID.TID 0000.0001)                 4.024928345980821E+03       /* J = 90 */
(PID.TID 0000.0001)     ;
(PID.TID 0000.0001) dyF =  /* dyF(:,1,:,1) ( units: m ) */
(PID.TID 0000.0001)     2 @  3.805780556189024E+03,             /* I =  1:  2 */
(PID.TID 0000.0001)                 3.805780556189731E+03,      /* I =  3 */
(PID.TID 0000.0001)                 3.805780556191145E+03,      /* I =  4 */
(PID.TID 0000.0001)     2 @  3.805780556189024E+03,             /* I =  5:  6 */
(PID.TID 0000.0001)     2 @  3.805780556189731E+03,             /* I =  7:  8 */
(PID.TID 0000.0001)                 3.805780556189024E+03,      /* I =  9 */
(PID.TID 0000.0001)     2 @  3.805780556190438E+03,             /* I = 10: 11 */
(PID.TID 0000.0001)                 3.805780556189731E+03,      /* I = 12 */
(PID.TID 0000.0001)     2 @  3.805780556189024E+03,             /* I = 13: 14 */
(PID.TID 0000.0001)                 3.805780556189731E+03,      /* I = 15 */
(PID.TID 0000.0001)                 3.805780556190438E+03,      /* I = 16 */
(PID.TID 0000.0001)                 3.805780556189731E+03,      /* I = 17 */
(PID.TID 0000.0001)                 3.805780556189024E+03,      /* I = 18 */
(PID.TID 0000.0001)                 3.805780556189731E+03,      /* I = 19 */
(PID.TID 0000.0001)                 3.805780556191145E+03,      /* I = 20 */
(PID.TID 0000.0001)                 3.805780556190438E+03,      /* I = 21 */
(PID.TID 0000.0001)                 3.805780556189024E+03,      /* I = 22 */
(PID.TID 0000.0001)                 3.805780556190438E+03,      /* I = 23 */
(PID.TID 0000.0001)     2 @  3.805780556189024E+03,             /* I = 24: 25 */
(PID.TID 0000.0001)                 3.805780556190438E+03,      /* I = 26 */
(PID.TID 0000.0001)                 3.805780556189024E+03,      /* I = 27 */
(PID.TID 0000.0001)                 3.805780556190438E+03,      /* I = 28 */
(PID.TID 0000.0001)     2 @  3.805780556189024E+03,             /* I = 29: 30 */
(PID.TID 0000.0001)     5 @  3.805780556189731E+03,             /* I = 31: 35 */
(PID.TID 0000.0001)     2 @  3.805780556189024E+03,             /* I = 36: 37 */
(PID.TID 0000.0001)                 3.805780556191145E+03,      /* I = 38 */
(PID.TID 0000.0001)                 3.805780556190438E+03,      /* I = 39 */
(PID.TID 0000.0001)                 3.805780556189024E+03,      /* I = 40 */
(PID.TID 0000.0001)                 3.805780556190438E+03,      /* I = 41 */
(PID.TID 0000.0001)     2 @  3.805780556189731E+03,             /* I = 42: 43 */
(PID.TID 0000.0001)                 3.805780556189024E+03,      /* I = 44 */
(PID.TID 0000.0001)                 3.805780556191145E+03,      /* I = 45 */
(PID.TID 0000.0001)                 3.805780556190438E+03,      /* I = 46 */
(PID.TID 0000.0001)     5 @  3.805780556189024E+03,             /* I = 47: 51 */
(PID.TID 0000.0001)     2 @  3.805780556189731E+03,             /* I = 52: 53 */
(PID.TID 0000.0001)                 3.805780556190438E+03,      /* I = 54 */
(PID.TID 0000.0001)                 3.805780556189024E+03,      /* I = 55 */
(PID.TID 0000.0001)     2 @  3.805780556189731E+03,             /* I = 56: 57 */
(PID.TID 0000.0001)     2 @  3.805780556189024E+03,             /* I = 58: 59 */
(PID.TID 0000.0001)     2 @  3.805780556191145E+03,             /* I = 60: 61 */
(PID.TID 0000.0001)                 3.805780556189731E+03,      /* I = 62 */
(PID.TID 0000.0001)                 3.805780556190438E+03,      /* I = 63 */
(PID.TID 0000.0001)     2 @  3.805780556189024E+03,             /* I = 64: 65 */
(PID.TID 0000.0001)                 3.805780556189731E+03,      /* I = 66 */
(PID.TID 0000.0001)                 3.805780556189024E+03,      /* I = 67 */
(PID.TID 0000.0001)                 3.805780556190438E+03,      /* I = 68 */
(PID.TID 0000.0001)     2 @  3.805780556189024E+03,             /* I = 69: 70 */
(PID.TID 0000.0001)                 3.805780556191145E+03,      /* I = 71 */
(PID.TID 0000.0001)     2 @  3.805780556189024E+03,             /* I = 72: 73 */
(PID.TID 0000.0001)                 3.805780556191145E+03,      /* I = 74 */
(PID.TID 0000.0001)     2 @  3.805780556189024E+03,             /* I = 75: 76 */
(PID.TID 0000.0001)                 3.805780556189731E+03,      /* I = 77 */
(PID.TID 0000.0001)     3 @  3.805780556189024E+03,             /* I = 78: 80 */
(PID.TID 0000.0001)                 3.805780556191145E+03,      /* I = 81 */
(PID.TID 0000.0001)                 3.805780556191145E+03,      /* I = 82 */
(PID.TID 0000.0001)     2 @  3.805780556189024E+03,             /* I = 83: 84 */
(PID.TID 0000.0001)                 3.805780556189731E+03,      /* I = 85 */
(PID.TID 0000.0001)     2 @  3.805780556189024E+03,             /* I = 86: 87 */
(PID.TID 0000.0001)     2 @  3.805780556189731E+03,             /* I = 88: 89 */
(PID.TID 0000.0001)                 3.805780556189024E+03       /* I = 90 */
(PID.TID 0000.0001)     ;
(PID.TID 0000.0001) dyF =  /* dyF(1,:,1,:) ( units: m ) */
(PID.TID 0000.0001)                 3.805780556189024E+03,      /* J =  1 */
(PID.TID 0000.0001)                 3.804655957162750E+03,      /* J =  2 */
(PID.TID 0000.0001)                 3.803530549746410E+03,      /* J =  3 */
(PID.TID 0000.0001)      . . .
(PID.TID 0000.0001)                 3.783136978678236E+03,      /* J = 21 */
(PID.TID 0000.0001)                 3.781996544636309E+03,      /* J = 22 */
(PID.TID 0000.0001)                 3.780855337215908E+03,      /* J = 23 */
(PID.TID 0000.0001)                 3.779713358176577E+03,      /* J = 24 */
(PID.TID 0000.0001)                 3.778570609261947E+03,      /* J = 25 */
(PID.TID 0000.0001)                 3.777427092213173E+03,      /* J = 26 */
(PID.TID 0000.0001)      . . .
(PID.TID 0000.0001)                 3.757871472117493E+03,      /* J = 43 */
(PID.TID 0000.0001)                 3.756714427492263E+03,      /* J = 44 */
(PID.TID 0000.0001)                 3.755556647912451E+03,      /* J = 45 */
(PID.TID 0000.0001)                 3.754398135119921E+03,      /* J = 46 */
(PID.TID 0000.0001)                 3.753238890862194E+03,      /* J = 47 */
(PID.TID 0000.0001)                 3.752078916875121E+03,      /* J = 48 */
(PID.TID 0000.0001)      . . .
(PID.TID 0000.0001)                 3.732249397397844E+03,      /* J = 65 */
(PID.TID 0000.0001)                 3.731076585837083E+03,      /* J = 66 */
(PID.TID 0000.0001)                 3.729903077586157E+03,      /* J = 67 */
(PID.TID 0000.0001)                 3.728728874370662E+03,      /* J = 68 */
(PID.TID 0000.0001)                 3.727553977931755E+03,      /* J = 69 */
(PID.TID 0000.0001)                 3.726378389998569E+03,      /* J = 70 */
(PID.TID 0000.0001)      . . .
(PID.TID 0000.0001)                 3.705101535240453E+03,      /* J = 88 */
(PID.TID 0000.0001)                 3.703913137663505E+03,      /* J = 89 */
(PID.TID 0000.0001)                 3.702724083160097E+03       /* J = 90 */
(PID.TID 0000.0001)     ;
(PID.TID 0000.0001) dxG =  /* dxG(:,1,:,1) ( units: m ) */
(PID.TID 0000.0001)                 4.140261706871251E+03,      /* I =  1 */
(PID.TID 0000.0001)                 4.140261706868722E+03,      /* I =  2 */
(PID.TID 0000.0001)                 4.140261706869986E+03,      /* I =  3 */
(PID.TID 0000.0001)      . . .
(PID.TID 0000.0001)                 4.140261706871252E+03,      /* I = 21 */
(PID.TID 0000.0001)                 4.140261706871251E+03,      /* I = 22 */
(PID.TID 0000.0001)                 4.140261706868722E+03,      /* I = 23 */
(PID.TID 0000.0001)                 4.140261706871251E+03,      /* I = 24 */
(PID.TID 0000.0001)                 4.140261706868090E+03,      /* I = 25 */
(PID.TID 0000.0001)                 4.140261706870619E+03,      /* I = 26 */
(PID.TID 0000.0001)      . . .
(PID.TID 0000.0001)                 4.140261706869986E+03,      /* I = 43 */
(PID.TID 0000.0001)                 4.140261706869986E+03,      /* I = 44 */
(PID.TID 0000.0001)                 4.140261706869986E+03,      /* I = 45 */
(PID.TID 0000.0001)                 4.140261706869986E+03,      /* I = 46 */
(PID.TID 0000.0001)                 4.140261706870619E+03,      /* I = 47 */
(PID.TID 0000.0001)                 4.140261706868722E+03,      /* I = 48 */
(PID.TID 0000.0001)      . . .
(PID.TID 0000.0001)                 4.140261706869986E+03,      /* I = 65 */
(PID.TID 0000.0001)                 4.140261706870619E+03,      /* I = 66 */
(PID.TID 0000.0001)                 4.140261706869354E+03,      /* I = 67 */
(PID.TID 0000.0001)                 4.140261706871252E+03,      /* I = 68 */
(PID.TID 0000.0001)                 4.140261706869354E+03,      /* I = 69 */
(PID.TID 0000.0001)                 4.140261706868090E+03,      /* I = 70 */
(PID.TID 0000.0001)      . . .
(PID.TID 0000.0001)                 4.140261706869354E+03,      /* I = 88 */
(PID.TID 0000.0001)                 4.140261706871252E+03,      /* I = 89 */
(PID.TID 0000.0001)                 4.140261706870619E+03       /* I = 90 */
(PID.TID 0000.0001)     ;
(PID.TID 0000.0001) dxG =  /* dxG(1,:,1,:) ( units: m ) */
(PID.TID 0000.0001)                 4.140261706871251E+03,      /* J =  1 */
(PID.TID 0000.0001)                 4.139019569774803E+03,      /* J =  2 */
(PID.TID 0000.0001)                 4.137776322960138E+03,      /* J =  3 */
(PID.TID 0000.0001)      . . .
(PID.TID 0000.0001)                 4.115210417225257E+03,      /* J = 21 */
(PID.TID 0000.0001)                 4.113946468945782E+03,      /* J = 22 */
(PID.TID 0000.0001)                 4.112681451284442E+03,      /* J = 23 */
(PID.TID 0000.0001)                 4.111415366259216E+03,      /* J = 24 */
(PID.TID 0000.0001)                 4.110148215891126E+03,      /* J = 25 */
(PID.TID 0000.0001)                 4.108880002190421E+03,      /* J = 26 */
(PID.TID 0000.0001)      . . .
(PID.TID 0000.0001)                 4.087159633305929E+03,      /* J = 43 */
(PID.TID 0000.0001)                 4.085872624353334E+03,      /* J = 44 */
(PID.TID 0000.0001)                 4.084584590356903E+03,      /* J = 45 */
(PID.TID 0000.0001)                 4.083295533329885E+03,      /* J = 46 */
(PID.TID 0000.0001)                 4.082005455289041E+03,      /* J = 47 */
(PID.TID 0000.0001)                 4.080714358244662E+03,      /* J = 48 */
(PID.TID 0000.0001)      . . .
(PID.TID 0000.0001)                 4.058611750065706E+03,      /* J = 65 */
(PID.TID 0000.0001)                 4.057302654843617E+03,      /* J = 66 */
(PID.TID 0000.0001)                 4.055992578806316E+03,      /* J = 67 */
(PID.TID 0000.0001)                 4.054681523964404E+03,      /* J = 68 */
(PID.TID 0000.0001)                 4.053369492323180E+03,      /* J = 69 */
(PID.TID 0000.0001)                 4.052056485885720E+03,      /* J = 70 */
(PID.TID 0000.0001)      . . .
(PID.TID 0000.0001)                 4.028257965154766E+03,      /* J = 88 */
(PID.TID 0000.0001)                 4.026926818301976E+03,      /* J = 89 */
(PID.TID 0000.0001)                 4.025594736691822E+03       /* J = 90 */
(PID.TID 0000.0001)     ;
(PID.TID 0000.0001) dyG =  /* dyG(:,1,:,1) ( units: m ) */
(PID.TID 0000.0001)                 3.805780556190438E+03,      /* I =  1 */
(PID.TID 0000.0001)                 3.805780556189731E+03,      /* I =  2 */
(PID.TID 0000.0001)    10 @  3.805780556189024E+03,             /* I =  3: 12 */
(PID.TID 0000.0001)                 3.805780556189731E+03,      /* I = 13 */
(PID.TID 0000.0001)     4 @  3.805780556189024E+03,             /* I = 14: 17 */
(PID.TID 0000.0001)                 3.805780556189731E+03,      /* I = 18 */
(PID.TID 0000.0001)     2 @  3.805780556189024E+03,             /* I = 19: 20 */
(PID.TID 0000.0001)                 3.805780556190438E+03,      /* I = 21 */
(PID.TID 0000.0001)                 3.805780556191145E+03,      /* I = 22 */
(PID.TID 0000.0001)                 3.805780556191145E+03,      /* I = 23 */
(PID.TID 0000.0001)                 3.805780556189024E+03,      /* I = 24 */
(PID.TID 0000.0001)                 3.805780556189731E+03,      /* I = 25 */
(PID.TID 0000.0001)                 3.805780556189024E+03,      /* I = 26 */
(PID.TID 0000.0001)                 3.805780556189731E+03,      /* I = 27 */
(PID.TID 0000.0001)                 3.805780556190438E+03,      /* I = 28 */
(PID.TID 0000.0001)                 3.805780556189024E+03,      /* I = 29 */
(PID.TID 0000.0001)                 3.805780556190438E+03,      /* I = 30 */
(PID.TID 0000.0001)                 3.805780556189024E+03,      /* I = 31 */
(PID.TID 0000.0001)                 3.805780556191145E+03,      /* I = 32 */
(PID.TID 0000.0001)     2 @  3.805780556190438E+03,             /* I = 33: 34 */
(PID.TID 0000.0001)     2 @  3.805780556189024E+03,             /* I = 35: 36 */
(PID.TID 0000.0001)                 3.805780556191145E+03,      /* I = 37 */
(PID.TID 0000.0001)     2 @  3.805780556189024E+03,             /* I = 38: 39 */
(PID.TID 0000.0001)                 3.805780556191145E+03,      /* I = 40 */
(PID.TID 0000.0001)                 3.805780556189024E+03,      /* I = 41 */
(PID.TID 0000.0001)                 3.805780556188316E+03,      /* I = 42 */
(PID.TID 0000.0001)                 3.805780556189024E+03,      /* I = 43 */
(PID.TID 0000.0001)                 3.805780556190438E+03,      /* I = 44 */
(PID.TID 0000.0001)                 3.805780556189731E+03,      /* I = 45 */
(PID.TID 0000.0001)                 3.805780556189731E+03,      /* I = 46 */
(PID.TID 0000.0001)                 3.805780556188316E+03,      /* I = 47 */
(PID.TID 0000.0001)     3 @  3.805780556189024E+03,             /* I = 48: 50 */
(PID.TID 0000.0001)     2 @  3.805780556190438E+03,             /* I = 51: 52 */
(PID.TID 0000.0001)                 3.805780556189731E+03,      /* I = 53 */
(PID.TID 0000.0001)                 3.805780556190438E+03,      /* I = 54 */
(PID.TID 0000.0001)                 3.805780556189731E+03,      /* I = 55 */
(PID.TID 0000.0001)                 3.805780556189024E+03,      /* I = 56 */
(PID.TID 0000.0001)                 3.805780556189731E+03,      /* I = 57 */
(PID.TID 0000.0001)                 3.805780556189731E+03,      /* I = 58 */
(PID.TID 0000.0001)                 3.805780556190438E+03,      /* I = 59 */
(PID.TID 0000.0001)     2 @  3.805780556189024E+03,             /* I = 60: 61 */
(PID.TID 0000.0001)                 3.805780556189731E+03,      /* I = 62 */
(PID.TID 0000.0001)                 3.805780556189731E+03,      /* I = 63 */
(PID.TID 0000.0001)     3 @  3.805780556189024E+03,             /* I = 64: 66 */
(PID.TID 0000.0001)                 3.805780556190438E+03,      /* I = 67 */
(PID.TID 0000.0001)                 3.805780556189731E+03,      /* I = 68 */
(PID.TID 0000.0001)                 3.805780556191145E+03,      /* I = 69 */
(PID.TID 0000.0001)                 3.805780556190438E+03,      /* I = 70 */
(PID.TID 0000.0001)                 3.805780556189024E+03,      /* I = 71 */
(PID.TID 0000.0001)                 3.805780556189731E+03,      /* I = 72 */
(PID.TID 0000.0001)     3 @  3.805780556189024E+03,             /* I = 73: 75 */
(PID.TID 0000.0001)     2 @  3.805780556189731E+03,             /* I = 76: 77 */
(PID.TID 0000.0001)                 3.805780556189024E+03,      /* I = 78 */
(PID.TID 0000.0001)                 3.805780556190438E+03,      /* I = 79 */
(PID.TID 0000.0001)                 3.805780556191145E+03,      /* I = 80 */
(PID.TID 0000.0001)                 3.805780556188316E+03,      /* I = 81 */
(PID.TID 0000.0001)     2 @  3.805780556190438E+03,             /* I = 82: 83 */
(PID.TID 0000.0001)                 3.805780556191145E+03,      /* I = 84 */
(PID.TID 0000.0001)     2 @  3.805780556189024E+03,             /* I = 85: 86 */
(PID.TID 0000.0001)                 3.805780556190438E+03,      /* I = 87 */
(PID.TID 0000.0001)                 3.805780556189024E+03,      /* I = 88 */
(PID.TID 0000.0001)     2 @  3.805780556190438E+03              /* I = 89: 90 */
(PID.TID 0000.0001)     ;
(PID.TID 0000.0001) dyG =  /* dyG(1,:,1,:) ( units: m ) */
(PID.TID 0000.0001)                 3.805780556190438E+03,      /* J =  1 */
(PID.TID 0000.0001)                 3.804655957162750E+03,      /* J =  2 */
(PID.TID 0000.0001)                 3.803530549746410E+03,      /* J =  3 */
(PID.TID 0000.0001)      . . .
(PID.TID 0000.0001)                 3.783136978678236E+03,      /* J = 21 */
(PID.TID 0000.0001)                 3.781996544636309E+03,      /* J = 22 */
(PID.TID 0000.0001)                 3.780855337215908E+03,      /* J = 23 */
(PID.TID 0000.0001)                 3.779713358176930E+03,      /* J = 24 */
(PID.TID 0000.0001)                 3.778570609261593E+03,      /* J = 25 */
(PID.TID 0000.0001)                 3.777427092213173E+03,      /* J = 26 */
(PID.TID 0000.0001)      . . .
(PID.TID 0000.0001)                 3.757871472117493E+03,      /* J = 43 */
(PID.TID 0000.0001)                 3.756714427491556E+03,      /* J = 44 */
(PID.TID 0000.0001)                 3.755556647913158E+03,      /* J = 45 */
(PID.TID 0000.0001)                 3.754398135119921E+03,      /* J = 46 */
(PID.TID 0000.0001)                 3.753238890862901E+03,      /* J = 47 */
(PID.TID 0000.0001)                 3.752078916872646E+03,      /* J = 48 */
(PID.TID 0000.0001)      . . .
(PID.TID 0000.0001)                 3.732249397397844E+03,      /* J = 65 */
(PID.TID 0000.0001)                 3.731076585836376E+03,      /* J = 66 */
(PID.TID 0000.0001)                 3.729903077586863E+03,      /* J = 67 */
(PID.TID 0000.0001)                 3.728728874369955E+03,      /* J = 68 */
(PID.TID 0000.0001)                 3.727553977932462E+03,      /* J = 69 */
(PID.TID 0000.0001)                 3.726378389999277E+03,      /* J = 70 */
(PID.TID 0000.0001)      . . .
(PID.TID 0000.0001)                 3.705101535241867E+03,      /* J = 88 */
(PID.TID 0000.0001)                 3.703913137661383E+03,      /* J = 89 */
(PID.TID 0000.0001)                 3.702724083160804E+03       /* J = 90 */
(PID.TID 0000.0001)     ;
(PID.TID 0000.0001) dxC =  /* dxC(:,1,:,1) ( units: m ) */
(PID.TID 0000.0001)                 4.139640777163015E+03,      /* I =  1 */
(PID.TID 0000.0001)                 4.139640777164278E+03,      /* I =  2 */
(PID.TID 0000.0001)                 4.139640777165541E+03,      /* I =  3 */
(PID.TID 0000.0001)      . . .
(PID.TID 0000.0001)                 4.139640777164910E+03,      /* I = 21 */
(PID.TID 0000.0001)                 4.139640777167438E+03,      /* I = 22 */
(PID.TID 0000.0001)                 4.139640777163015E+03,      /* I = 23 */
(PID.TID 0000.0001)                 4.139640777166174E+03,      /* I = 24 */
(PID.TID 0000.0001)                 4.139640777164277E+03,      /* I = 25 */
(PID.TID 0000.0001)                 4.139640777163646E+03,      /* I = 26 */
(PID.TID 0000.0001)      . . .
(PID.TID 0000.0001)                 4.139640777164910E+03,      /* I = 43 */
(PID.TID 0000.0001)                 4.139640777166173E+03,      /* I = 44 */
(PID.TID 0000.0001)                 4.139640777165541E+03,      /* I = 45 */
(PID.TID 0000.0001)                 4.139640777163015E+03,      /* I = 46 */
(PID.TID 0000.0001)                 4.139640777166805E+03,      /* I = 47 */
(PID.TID 0000.0001)                 4.139640777163015E+03,      /* I = 48 */
(PID.TID 0000.0001)      . . .
(PID.TID 0000.0001)                 4.139640777164910E+03,      /* I = 65 */
(PID.TID 0000.0001)                 4.139640777164278E+03,      /* I = 66 */
(PID.TID 0000.0001)                 4.139640777166805E+03,      /* I = 67 */
(PID.TID 0000.0001)                 4.139640777163015E+03,      /* I = 68 */
(PID.TID 0000.0001)                 4.139640777164910E+03,      /* I = 69 */
(PID.TID 0000.0001)                 4.139640777166174E+03,      /* I = 70 */
(PID.TID 0000.0001)      . . .
(PID.TID 0000.0001)                 4.139640777165542E+03,      /* I = 88 */
(PID.TID 0000.0001)                 4.139640777164910E+03,      /* I = 89 */
(PID.TID 0000.0001)                 4.139640777164910E+03       /* I = 90 */
(PID.TID 0000.0001)     ;
(PID.TID 0000.0001) dxC =  /* dxC(1,:,1,:) ( units: m ) */
(PID.TID 0000.0001)                 4.139640777163015E+03,      /* J =  1 */
(PID.TID 0000.0001)                 4.138398084958143E+03,      /* J =  2 */
(PID.TID 0000.0001)                 4.137154284032951E+03,      /* J =  3 */
(PID.TID 0000.0001)      . . .
(PID.TID 0000.0001)                 4.114578576884930E+03,      /* J = 21 */
(PID.TID 0000.0001)                 4.113314093656774E+03,      /* J = 22 */
(PID.TID 0000.0001)                 4.112048542062665E+03,      /* J = 23 */
(PID.TID 0000.0001)                 4.110781924116758E+03,      /* J = 24 */
(PID.TID 0000.0001)                 4.109514241830616E+03,      /* J = 25 */
(PID.TID 0000.0001)                 4.108245497221966E+03,      /* J = 26 */
(PID.TID 0000.0001)      . . .
(PID.TID 0000.0001)                 4.086516257086415E+03,      /* J = 43 */
(PID.TID 0000.0001)                 4.085228735359608E+03,      /* J = 44 */
(PID.TID 0000.0001)                 4.083940189598113E+03,      /* J = 45 */
(PID.TID 0000.0001)                 4.082650621811322E+03,      /* J = 46 */
(PID.TID 0000.0001)                 4.081360034014634E+03,      /* J = 47 */
(PID.TID 0000.0001)                 4.080068428223207E+03,      /* J = 48 */
(PID.TID 0000.0001)      . . .
(PID.TID 0000.0001)                 4.057957325183247E+03,      /* J = 65 */
(PID.TID 0000.0001)                 4.056647739299571E+03,      /* J = 66 */
(PID.TID 0000.0001)                 4.055337173609126E+03,      /* J = 67 */
(PID.TID 0000.0001)                 4.054025630117384E+03,      /* J = 68 */
(PID.TID 0000.0001)                 4.052713110826983E+03,      /* J = 69 */
(PID.TID 0000.0001)                 4.051399617747630E+03,      /* J = 70 */
(PID.TID 0000.0001)      . . .
(PID.TID 0000.0001)                 4.027592508695046E+03,      /* J = 88 */
(PID.TID 0000.0001)                 4.026260894220340E+03,      /* J = 89 */
(PID.TID 0000.0001)                 4.024928345982665E+03       /* J = 90 */
(PID.TID 0000.0001)     ;
(PID.TID 0000.0001) dyC =  /* dyC(:,1,:,1) ( units: m ) */
(PID.TID 0000.0001)                 3.806342552013452E+03,      /* I =  1 */
(PID.TID 0000.0001)                 3.806342552013806E+03,      /* I =  2 */
(PID.TID 0000.0001)                 3.806342552014160E+03,      /* I =  3 */
(PID.TID 0000.0001)                 3.806342552013452E+03,      /* I =  4 */
(PID.TID 0000.0001)     5 @  3.806342552013806E+03,             /* I =  5:  9 */
(PID.TID 0000.0001)     2 @  3.806342552013452E+03,             /* I = 10: 11 */
(PID.TID 0000.0001)                 3.806342552013099E+03,      /* I = 12 */
(PID.TID 0000.0001)                 3.806342552013452E+03,      /* I = 13 */
(PID.TID 0000.0001)                 3.806342552013099E+03,      /* I = 14 */
(PID.TID 0000.0001)     2 @  3.806342552013452E+03,             /* I = 15: 16 */
(PID.TID 0000.0001)                 3.806342552013806E+03,      /* I = 17 */
(PID.TID 0000.0001)                 3.806342552013099E+03,      /* I = 18 */
(PID.TID 0000.0001)                 3.806342552014160E+03,      /* I = 19 */
(PID.TID 0000.0001)                 3.806342552013806E+03,      /* I = 20 */
(PID.TID 0000.0001)                 3.806342552013452E+03,      /* I = 21 */
(PID.TID 0000.0001)                 3.806342552013806E+03,      /* I = 22 */
(PID.TID 0000.0001)                 3.806342552013452E+03,      /* I = 23 */
(PID.TID 0000.0001)                 3.806342552013099E+03,      /* I = 24 */
(PID.TID 0000.0001)                 3.806342552013452E+03,      /* I = 25 */
(PID.TID 0000.0001)                 3.806342552013099E+03,      /* I = 26 */
(PID.TID 0000.0001)     3 @  3.806342552013806E+03,             /* I = 27: 29 */
(PID.TID 0000.0001)     2 @  3.806342552013452E+03,             /* I = 30: 31 */
(PID.TID 0000.0001)                 3.806342552013806E+03,      /* I = 32 */
(PID.TID 0000.0001)                 3.806342552013452E+03,      /* I = 33 */
(PID.TID 0000.0001)     3 @  3.806342552013806E+03,             /* I = 34: 36 */
(PID.TID 0000.0001)                 3.806342552014160E+03,      /* I = 37 */
(PID.TID 0000.0001)                 3.806342552013452E+03,      /* I = 38 */
(PID.TID 0000.0001)                 3.806342552013806E+03,      /* I = 39 */
(PID.TID 0000.0001)     5 @  3.806342552013452E+03,             /* I = 40: 44 */
(PID.TID 0000.0001)                 3.806342552013806E+03,      /* I = 45 */
(PID.TID 0000.0001)                 3.806342552013099E+03,      /* I = 46 */
(PID.TID 0000.0001)                 3.806342552013806E+03,      /* I = 47 */
(PID.TID 0000.0001)                 3.806342552013452E+03,      /* I = 48 */
(PID.TID 0000.0001)                 3.806342552013806E+03,      /* I = 49 */
(PID.TID 0000.0001)                 3.806342552013452E+03,      /* I = 50 */
(PID.TID 0000.0001)                 3.806342552013806E+03,      /* I = 51 */
(PID.TID 0000.0001)     2 @  3.806342552013452E+03,             /* I = 52: 53 */
(PID.TID 0000.0001)     2 @  3.806342552013806E+03,             /* I = 54: 55 */
(PID.TID 0000.0001)                 3.806342552013452E+03,      /* I = 56 */
(PID.TID 0000.0001)                 3.806342552013806E+03,      /* I = 57 */
(PID.TID 0000.0001)     2 @  3.806342552014160E+03,             /* I = 58: 59 */
(PID.TID 0000.0001)     2 @  3.806342552013806E+03,             /* I = 60: 61 */
(PID.TID 0000.0001)     2 @  3.806342552013452E+03,             /* I = 62: 63 */
(PID.TID 0000.0001)                 3.806342552014160E+03,      /* I = 64 */
(PID.TID 0000.0001)                 3.806342552013452E+03,      /* I = 65 */
(PID.TID 0000.0001)                 3.806342552013806E+03,      /* I = 66 */
(PID.TID 0000.0001)                 3.806342552013452E+03,      /* I = 67 */
(PID.TID 0000.0001)                 3.806342552013806E+03,      /* I = 68 */
(PID.TID 0000.0001)     2 @  3.806342552013452E+03,             /* I = 69: 70 */
(PID.TID 0000.0001)     2 @  3.806342552013806E+03,             /* I = 71: 72 */
(PID.TID 0000.0001)                 3.806342552013100E+03,      /* I = 73 */
(PID.TID 0000.0001)                 3.806342552013806E+03,      /* I = 74 */
(PID.TID 0000.0001)     2 @  3.806342552013452E+03,             /* I = 75: 76 */
(PID.TID 0000.0001)     3 @  3.806342552013806E+03,             /* I = 77: 79 */
(PID.TID 0000.0001)                 3.806342552013452E+03,      /* I = 80 */
(PID.TID 0000.0001)     3 @  3.806342552013806E+03,             /* I = 81: 83 */
(PID.TID 0000.0001)     3 @  3.806342552013452E+03,             /* I = 84: 86 */
(PID.TID 0000.0001)                 3.806342552012392E+03,      /* I = 87 */
(PID.TID 0000.0001)     2 @  3.806342552013806E+03,             /* I = 88: 89 */
(PID.TID 0000.0001)                 3.806342552015220E+03       /* I = 90 */
(PID.TID 0000.0001)     ;
(PID.TID 0000.0001) dyC =  /* dyC(1,:,1,:) ( units: m ) */
(PID.TID 0000.0001)                 3.806342552013452E+03,      /* J =  1 */
(PID.TID 0000.0001)                 3.805218357834617E+03,      /* J =  2 */
(PID.TID 0000.0001)                 3.804093354393367E+03,      /* J =  3 */
(PID.TID 0000.0001)      . . .
(PID.TID 0000.0001)                 3.783706905136702E+03,      /* J = 21 */
(PID.TID 0000.0001)                 3.782566858439421E+03,      /* J = 22 */
(PID.TID 0000.0001)                 3.781426037489552E+03,      /* J = 23 */
(PID.TID 0000.0001)                 3.780284444041334E+03,      /* J = 24 */
(PID.TID 0000.0001)                 3.779142079841581E+03,      /* J = 25 */
(PID.TID 0000.0001)                 3.777998946643472E+03,      /* J = 26 */
(PID.TID 0000.0001)      . . .
(PID.TID 0000.0001)                 3.758449718276703E+03,      /* J = 43 */
(PID.TID 0000.0001)                 3.757293041782228E+03,      /* J = 44 */
(PID.TID 0000.0001)                 3.756135629462593E+03,      /* J = 45 */
(PID.TID 0000.0001)                 3.754977483059307E+03,      /* J = 46 */
(PID.TID 0000.0001)                 3.753818604317064E+03,      /* J = 47 */
(PID.TID 0000.0001)                 3.752658994974191E+03,      /* J = 48 */
(PID.TID 0000.0001)      . . .
(PID.TID 0000.0001)                 3.732835541373976E+03,      /* J = 65 */
(PID.TID 0000.0001)                 3.731663078812468E+03,      /* J = 66 */
(PID.TID 0000.0001)                 3.730489918689510E+03,      /* J = 67 */
(PID.TID 0000.0001)                 3.729316062740600E+03,      /* J = 68 */
(PID.TID 0000.0001)                 3.728141512695578E+03,      /* J = 69 */
(PID.TID 0000.0001)                 3.726966270292064E+03,      /* J = 70 */
(PID.TID 0000.0001)      . . .
(PID.TID 0000.0001)                 3.705695487143316E+03,      /* J = 88 */
(PID.TID 0000.0001)                 3.704507418674576E+03,      /* J = 89 */
(PID.TID 0000.0001)                 3.703318692418698E+03       /* J = 90 */
(PID.TID 0000.0001)     ;
(PID.TID 0000.0001) dxV =  /* dxV(:,1,:,1) ( units: m ) */
(PID.TID 0000.0001)                 4.140261706869354E+03,      /* I =  1 */
(PID.TID 0000.0001)                 4.140261706868722E+03,      /* I =  2 */
(PID.TID 0000.0001)                 4.140261706871251E+03,      /* I =  3 */
(PID.TID 0000.0001)      . . .
(PID.TID 0000.0001)                 4.140261706869354E+03,      /* I = 21 */
(PID.TID 0000.0001)                 4.140261706870619E+03,      /* I = 22 */
(PID.TID 0000.0001)                 4.140261706868722E+03,      /* I = 23 */
(PID.TID 0000.0001)                 4.140261706870619E+03,      /* I = 24 */
(PID.TID 0000.0001)                 4.140261706871251E+03,      /* I = 25 */
(PID.TID 0000.0001)                 4.140261706870619E+03,      /* I = 26 */
(PID.TID 0000.0001)      . . .
(PID.TID 0000.0001)                 4.140261706870619E+03,      /* I = 43 */
(PID.TID 0000.0001)                 4.140261706871251E+03,      /* I = 44 */
(PID.TID 0000.0001)                 4.140261706870619E+03,      /* I = 45 */
(PID.TID 0000.0001)                 4.140261706868090E+03,      /* I = 46 */
(PID.TID 0000.0001)                 4.140261706871883E+03,      /* I = 47 */
(PID.TID 0000.0001)                 4.140261706866826E+03,      /* I = 48 */
(PID.TID 0000.0001)      . . .
(PID.TID 0000.0001)                 4.140261706871251E+03,      /* I = 65 */
(PID.TID 0000.0001)                 4.140261706869354E+03,      /* I = 66 */
(PID.TID 0000.0001)                 4.140261706870619E+03,      /* I = 67 */
(PID.TID 0000.0001)                 4.140261706868722E+03,      /* I = 68 */
(PID.TID 0000.0001)                 4.140261706869354E+03,      /* I = 69 */
(PID.TID 0000.0001)                 4.140261706872515E+03,      /* I = 70 */
(PID.TID 0000.0001)      . . .
(PID.TID 0000.0001)                 4.140261706871883E+03,      /* I = 88 */
(PID.TID 0000.0001)                 4.140261706870619E+03,      /* I = 89 */
(PID.TID 0000.0001)                 4.140261706868090E+03       /* I = 90 */
(PID.TID 0000.0001)     ;
(PID.TID 0000.0001) dxV =  /* dxV(1,:,1,:) ( units: m ) */
(PID.TID 0000.0001)                 4.140261706869354E+03,      /* J =  1 */
(PID.TID 0000.0001)                 4.139019569774803E+03,      /* J =  2 */
(PID.TID 0000.0001)                 4.137776322958875E+03,      /* J =  3 */
(PID.TID 0000.0001)      . . .
(PID.TID 0000.0001)                 4.115210417224628E+03,      /* J = 21 */
(PID.TID 0000.0001)                 4.113946468945782E+03,      /* J = 22 */
(PID.TID 0000.0001)                 4.112681451283814E+03,      /* J = 23 */
(PID.TID 0000.0001)                 4.111415366257961E+03,      /* J = 24 */
(PID.TID 0000.0001)                 4.110148215889871E+03,      /* J = 25 */
(PID.TID 0000.0001)                 4.108880002189793E+03,      /* J = 26 */
(PID.TID 0000.0001)      . . .
(PID.TID 0000.0001)                 4.087159633307177E+03,      /* J = 43 */
(PID.TID 0000.0001)                 4.085872624353333E+03,      /* J = 44 */
(PID.TID 0000.0001)                 4.084584590354409E+03,      /* J = 45 */
(PID.TID 0000.0001)                 4.083295533329885E+03,      /* J = 46 */
(PID.TID 0000.0001)                 4.082005455287795E+03,      /* J = 47 */
(PID.TID 0000.0001)                 4.080714358242170E+03,      /* J = 48 */
(PID.TID 0000.0001)      . . .
(PID.TID 0000.0001)                 4.058611750065706E+03,      /* J = 65 */
(PID.TID 0000.0001)                 4.057302654844237E+03,      /* J = 66 */
(PID.TID 0000.0001)                 4.055992578806316E+03,      /* J = 67 */
(PID.TID 0000.0001)                 4.054681523963785E+03,      /* J = 68 */
(PID.TID 0000.0001)                 4.053369492320704E+03,      /* J = 69 */
(PID.TID 0000.0001)                 4.052056485885720E+03,      /* J = 70 */
(PID.TID 0000.0001)      . . .
(PID.TID 0000.0001)                 4.028257965154151E+03,      /* J = 88 */
(PID.TID 0000.0001)                 4.026926818301361E+03,      /* J = 89 */
(PID.TID 0000.0001)                 4.025594736689364E+03       /* J = 90 */
(PID.TID 0000.0001)     ;
(PID.TID 0000.0001) dyU =  /* dyU(:,1,:,1) ( units: m ) */
(PID.TID 0000.0001)                 3.806342552013452E+03,      /* I =  1 */
(PID.TID 0000.0001)                 3.806342552013806E+03,      /* I =  2 */
(PID.TID 0000.0001)                 3.806342552013099E+03,      /* I =  3 */
(PID.TID 0000.0001)                 3.806342552013806E+03,      /* I =  4 */
(PID.TID 0000.0001)     3 @  3.806342552013452E+03,             /* I =  5:  7 */
(PID.TID 0000.0001)     2 @  3.806342552013806E+03,             /* I =  8:  9 */
(PID.TID 0000.0001)     2 @  3.806342552013452E+03,             /* I = 10: 11 */
(PID.TID 0000.0001)                 3.806342552013806E+03,      /* I = 12 */
(PID.TID 0000.0001)     2 @  3.806342552014160E+03,             /* I = 13: 14 */
(PID.TID 0000.0001)                 3.806342552013099E+03,      /* I = 15 */
(PID.TID 0000.0001)                 3.806342552013806E+03,      /* I = 16 */
(PID.TID 0000.0001)                 3.806342552013452E+03,      /* I = 17 */
(PID.TID 0000.0001)     2 @  3.806342552013806E+03,             /* I = 18: 19 */
(PID.TID 0000.0001)                 3.806342552013452E+03,      /* I = 20 */
(PID.TID 0000.0001)                 3.806342552013806E+03,      /* I = 21 */
(PID.TID 0000.0001)                 3.806342552013452E+03,      /* I = 22 */
(PID.TID 0000.0001)                 3.806342552013806E+03,      /* I = 23 */
(PID.TID 0000.0001)     3 @  3.806342552013452E+03,             /* I = 24: 26 */
(PID.TID 0000.0001)                 3.806342552013806E+03,      /* I = 27 */
(PID.TID 0000.0001)                 3.806342552013099E+03,      /* I = 28 */
(PID.TID 0000.0001)                 3.806342552013806E+03,      /* I = 29 */
(PID.TID 0000.0001)                 3.806342552013452E+03,      /* I = 30 */
(PID.TID 0000.0001)     2 @  3.806342552013806E+03,             /* I = 31: 32 */
(PID.TID 0000.0001)                 3.806342552013452E+03,      /* I = 33 */
(PID.TID 0000.0001)                 3.806342552013806E+03,      /* I = 34 */
(PID.TID 0000.0001)                 3.806342552014160E+03,      /* I = 35 */
(PID.TID 0000.0001)                 3.806342552013453E+03,      /* I = 36 */
(PID.TID 0000.0001)                 3.806342552013806E+03,      /* I = 37 */
(PID.TID 0000.0001)                 3.806342552013452E+03,      /* I = 38 */
(PID.TID 0000.0001)                 3.806342552013806E+03,      /* I = 39 */
(PID.TID 0000.0001)     2 @  3.806342552013452E+03,             /* I = 40: 41 */
(PID.TID 0000.0001)                 3.806342552014160E+03,      /* I = 42 */
(PID.TID 0000.0001)                 3.806342552013100E+03,      /* I = 43 */
(PID.TID 0000.0001)                 3.806342552013452E+03,      /* I = 44 */
(PID.TID 0000.0001)                 3.806342552013099E+03,      /* I = 45 */
(PID.TID 0000.0001)     2 @  3.806342552013806E+03,             /* I = 46: 47 */
(PID.TID 0000.0001)                 3.806342552013452E+03,      /* I = 48 */
(PID.TID 0000.0001)                 3.806342552013806E+03,      /* I = 49 */
(PID.TID 0000.0001)                 3.806342552013452E+03,      /* I = 50 */
(PID.TID 0000.0001)                 3.806342552013099E+03,      /* I = 51 */
(PID.TID 0000.0001)     2 @  3.806342552013452E+03,             /* I = 52: 53 */
(PID.TID 0000.0001)                 3.806342552013099E+03,      /* I = 54 */
(PID.TID 0000.0001)     2 @  3.806342552013806E+03,             /* I = 55: 56 */
(PID.TID 0000.0001)                 3.806342552013453E+03,      /* I = 57 */
(PID.TID 0000.0001)                 3.806342552013452E+03,      /* I = 58 */
(PID.TID 0000.0001)                 3.806342552013099E+03,      /* I = 59 */
(PID.TID 0000.0001)                 3.806342552014160E+03,      /* I = 60 */
(PID.TID 0000.0001)                 3.806342552013452E+03,      /* I = 61 */
(PID.TID 0000.0001)                 3.806342552014160E+03,      /* I = 62 */
(PID.TID 0000.0001)     3 @  3.806342552013806E+03,             /* I = 63: 65 */
(PID.TID 0000.0001)     4 @  3.806342552013452E+03,             /* I = 66: 69 */
(PID.TID 0000.0001)                 3.806342552013806E+03,      /* I = 70 */
(PID.TID 0000.0001)     2 @  3.806342552014160E+03,             /* I = 71: 72 */
(PID.TID 0000.0001)                 3.806342552013099E+03,      /* I = 73 */
(PID.TID 0000.0001)     2 @  3.806342552013452E+03,             /* I = 74: 75 */
(PID.TID 0000.0001)                 3.806342552014160E+03,      /* I = 76 */
(PID.TID 0000.0001)     2 @  3.806342552013452E+03,             /* I = 77: 78 */
(PID.TID 0000.0001)     4 @  3.806342552013806E+03,             /* I = 79: 82 */
(PID.TID 0000.0001)                 3.806342552013452E+03,      /* I = 83 */
(PID.TID 0000.0001)     7 @  3.806342552013806E+03              /* I = 84: 90 */
(PID.TID 0000.0001)     ;
(PID.TID 0000.0001) dyU =  /* dyU(1,:,1,:) ( units: m ) */
(PID.TID 0000.0001)                 3.806342552013452E+03,      /* J =  1 */
(PID.TID 0000.0001)                 3.805218357834617E+03,      /* J =  2 */
(PID.TID 0000.0001)                 3.804093354393367E+03,      /* J =  3 */
(PID.TID 0000.0001)      . . .
(PID.TID 0000.0001)                 3.783706905138116E+03,      /* J = 21 */
(PID.TID 0000.0001)                 3.782566858436945E+03,      /* J = 22 */
(PID.TID 0000.0001)                 3.781426037490259E+03,      /* J = 23 */
(PID.TID 0000.0001)                 3.780284444041687E+03,      /* J = 24 */
(PID.TID 0000.0001)                 3.779142079841227E+03,      /* J = 25 */
(PID.TID 0000.0001)                 3.777998946644533E+03,      /* J = 26 */
(PID.TID 0000.0001)      . . .
(PID.TID 0000.0001)                 3.758449718277056E+03,      /* J = 43 */
(PID.TID 0000.0001)                 3.757293041781874E+03,      /* J = 44 */
(PID.TID 0000.0001)                 3.756135629463300E+03,      /* J = 45 */
(PID.TID 0000.0001)                 3.754977483058600E+03,      /* J = 46 */
(PID.TID 0000.0001)                 3.753818604315650E+03,      /* J = 47 */
(PID.TID 0000.0001)                 3.752658994974545E+03,      /* J = 48 */
(PID.TID 0000.0001)      . . .
(PID.TID 0000.0001)                 3.732835541373976E+03,      /* J = 65 */
(PID.TID 0000.0001)                 3.731663078812468E+03,      /* J = 66 */
(PID.TID 0000.0001)                 3.730489918689510E+03,      /* J = 67 */
(PID.TID 0000.0001)                 3.729316062740600E+03,      /* J = 68 */
(PID.TID 0000.0001)                 3.728141512695578E+03,      /* J = 69 */
(PID.TID 0000.0001)                 3.726966270292771E+03,      /* J = 70 */
(PID.TID 0000.0001)      . . .
(PID.TID 0000.0001)                 3.705695487141901E+03,      /* J = 88 */
(PID.TID 0000.0001)                 3.704507418675990E+03,      /* J = 89 */
(PID.TID 0000.0001)                 3.703318692419405E+03       /* J = 90 */
(PID.TID 0000.0001)     ;
(PID.TID 0000.0001) rA  =  /* rA (:,1,:,1) ( units: m^2 ) */
(PID.TID 0000.0001)                 1.575456447853378E+07,      /* I =  1 */
(PID.TID 0000.0001)                 1.575456449655355E+07,      /* I =  2 */
(PID.TID 0000.0001)                 1.575456450556343E+07,      /* I =  3 */
(PID.TID 0000.0001)      . . .
(PID.TID 0000.0001)                 1.575456449655355E+07,      /* I = 21 */
(PID.TID 0000.0001)                 1.575456456863260E+07,      /* I = 22 */
(PID.TID 0000.0001)                 1.575456452358319E+07,      /* I = 23 */
(PID.TID 0000.0001)                 1.575456446051402E+07,      /* I = 24 */
(PID.TID 0000.0001)                 1.575456459566225E+07,      /* I = 25 */
(PID.TID 0000.0001)                 1.575456455962272E+07,      /* I = 26 */
(PID.TID 0000.0001)      . . .
(PID.TID 0000.0001)                 1.575456446051402E+07,      /* I = 43 */
(PID.TID 0000.0001)                 1.575456445150414E+07,      /* I = 44 */
(PID.TID 0000.0001)                 1.575456439744485E+07,      /* I = 45 */
(PID.TID 0000.0001)                 1.575456449655355E+07,      /* I = 46 */
(PID.TID 0000.0001)                 1.575456447853378E+07,      /* I = 47 */
(PID.TID 0000.0001)                 1.575456454160295E+07,      /* I = 48 */
(PID.TID 0000.0001)      . . .
(PID.TID 0000.0001)                 1.575456451457331E+07,      /* I = 65 */
(PID.TID 0000.0001)                 1.575456456863260E+07,      /* I = 66 */
(PID.TID 0000.0001)                 1.575456456863260E+07,      /* I = 67 */
(PID.TID 0000.0001)                 1.575456453259307E+07,      /* I = 68 */
(PID.TID 0000.0001)                 1.575456457764248E+07,      /* I = 69 */
(PID.TID 0000.0001)                 1.575456455962272E+07,      /* I = 70 */
(PID.TID 0000.0001)      . . .
(PID.TID 0000.0001)                 1.575456452358319E+07,      /* I = 88 */
(PID.TID 0000.0001)                 1.575456450556343E+07,      /* I = 89 */
(PID.TID 0000.0001)                 1.575456446051402E+07       /* I = 90 */
(PID.TID 0000.0001)     ;
(PID.TID 0000.0001) rA  =  /* rA (1,:,1,:) ( units: m^2 ) */
(PID.TID 0000.0001)                 1.575456447853378E+07,      /* J =  1 */
(PID.TID 0000.0001)                 1.574518105611758E+07,      /* J =  2 */
(PID.TID 0000.0001)                 1.573579285846405E+07,      /* J =  3 */
(PID.TID 0000.0001)      . . .
(PID.TID 0000.0001)                 1.556601453942070E+07,      /* J = 21 */
(PID.TID 0000.0001)                 1.555653981987293E+07,      /* J = 22 */
(PID.TID 0000.0001)                 1.554706076657204E+07,      /* J = 23 */
(PID.TID 0000.0001)                 1.553757746961686E+07,      /* J = 24 */
(PID.TID 0000.0001)                 1.552808983890856E+07,      /* J = 25 */
(PID.TID 0000.0001)                 1.551859794652621E+07,      /* J = 26 */
(PID.TID 0000.0001)      . . .
(PID.TID 0000.0001)                 1.535660308411142E+07,      /* J = 43 */
(PID.TID 0000.0001)                 1.534703796842025E+07,      /* J = 44 */
(PID.TID 0000.0001)                 1.533746891541077E+07,      /* J = 45 */
(PID.TID 0000.0001)                 1.532789606023120E+07,      /* J = 46 */
(PID.TID 0000.0001)                 1.531831934882224E+07,      /* J = 47 */
(PID.TID 0000.0001)                 1.530873887128272E+07,      /* J = 48 */
(PID.TID 0000.0001)      . . .
(PID.TID 0000.0001)                 1.514530891490604E+07,      /* J = 65 */
(PID.TID 0000.0001)                 1.513566350314890E+07,      /* J = 66 */
(PID.TID 0000.0001)                 1.512601464961694E+07,      /* J = 67 */
(PID.TID 0000.0001)                 1.511636259757696E+07,      /* J = 68 */
(PID.TID 0000.0001)                 1.510670712178192E+07,      /* J = 69 */
(PID.TID 0000.0001)                 1.509704822223184E+07,      /* J = 70 */
(PID.TID 0000.0001)      . . .
(PID.TID 0000.0001)                 1.492263931952298E+07,      /* J = 88 */
(PID.TID 0000.0001)                 1.491292076554595E+07,      /* J = 89 */
(PID.TID 0000.0001)                 1.490319933741666E+07       /* J = 90 */
(PID.TID 0000.0001)     ;
(PID.TID 0000.0001) rAw =  /* rAw(:,1,:,1) ( units: m^2 ) */
(PID.TID 0000.0001)                 1.575456449655355E+07,      /* I =  1 */
(PID.TID 0000.0001)                 1.575456447853378E+07,      /* I =  2 */
(PID.TID 0000.0001)                 1.575456447853378E+07,      /* I =  3 */
(PID.TID 0000.0001)      . . .
(PID.TID 0000.0001)                 1.575456441546461E+07,      /* I = 21 */
(PID.TID 0000.0001)                 1.575456455061284E+07,      /* I = 22 */
(PID.TID 0000.0001)                 1.575456453259308E+07,      /* I = 23 */
(PID.TID 0000.0001)                 1.575456455061284E+07,      /* I = 24 */
(PID.TID 0000.0001)                 1.575456446952390E+07,      /* I = 25 */
(PID.TID 0000.0001)                 1.575456458665236E+07,      /* I = 26 */
(PID.TID 0000.0001)      . . .
(PID.TID 0000.0001)                 1.575456441546461E+07,      /* I = 43 */
(PID.TID 0000.0001)                 1.575456446051402E+07,      /* I = 44 */
(PID.TID 0000.0001)                 1.575456444249426E+07,      /* I = 45 */
(PID.TID 0000.0001)                 1.575456440645473E+07,      /* I = 46 */
(PID.TID 0000.0001)                 1.575456450556343E+07,      /* I = 47 */
(PID.TID 0000.0001)                 1.575456456863260E+07,      /* I = 48 */
(PID.TID 0000.0001)      . . .
(PID.TID 0000.0001)                 1.575456451457331E+07,      /* I = 65 */
(PID.TID 0000.0001)                 1.575456456863260E+07,      /* I = 66 */
(PID.TID 0000.0001)                 1.575456457764248E+07,      /* I = 67 */
(PID.TID 0000.0001)                 1.575456455962272E+07,      /* I = 68 */
(PID.TID 0000.0001)                 1.575456453259308E+07,      /* I = 69 */
(PID.TID 0000.0001)                 1.575456455061284E+07,      /* I = 70 */
(PID.TID 0000.0001)      . . .
(PID.TID 0000.0001)                 1.575456454160296E+07,      /* I = 88 */
(PID.TID 0000.0001)                 1.575456450556343E+07,      /* I = 89 */
(PID.TID 0000.0001)                 1.575456448754366E+07       /* I = 90 */
(PID.TID 0000.0001)     ;
(PID.TID 0000.0001) rAw =  /* rAw(1,:,1,:) ( units: m^2 ) */
(PID.TID 0000.0001)                 1.575456449655355E+07,      /* J =  1 */
(PID.TID 0000.0001)                 1.574518110116698E+07,      /* J =  2 */
(PID.TID 0000.0001)                 1.573579285846405E+07,      /* J =  3 */
(PID.TID 0000.0001)      . . .
(PID.TID 0000.0001)                 1.556601457546023E+07,      /* J = 21 */
(PID.TID 0000.0001)                 1.555653976581364E+07,      /* J = 22 */
(PID.TID 0000.0001)                 1.554706072152263E+07,      /* J = 23 */
(PID.TID 0000.0001)                 1.553757753268603E+07,      /* J = 24 */
(PID.TID 0000.0001)                 1.552808989296786E+07,      /* J = 25 */
(PID.TID 0000.0001)                 1.551859796454598E+07,      /* J = 26 */
(PID.TID 0000.0001)      . . .
(PID.TID 0000.0001)                 1.535660306609166E+07,      /* J = 43 */
(PID.TID 0000.0001)                 1.534703794139061E+07,      /* J = 44 */
(PID.TID 0000.0001)                 1.533746892442065E+07,      /* J = 45 */
(PID.TID 0000.0001)                 1.532789599716202E+07,      /* J = 46 */
(PID.TID 0000.0001)                 1.531831930377283E+07,      /* J = 47 */
(PID.TID 0000.0001)                 1.530873889831237E+07,      /* J = 48 */
(PID.TID 0000.0001)      . . .
(PID.TID 0000.0001)                 1.514530881579734E+07,      /* J = 65 */
(PID.TID 0000.0001)                 1.513566350314890E+07,      /* J = 66 */
(PID.TID 0000.0001)                 1.512601465862682E+07,      /* J = 67 */
(PID.TID 0000.0001)                 1.511636260658684E+07,      /* J = 68 */
(PID.TID 0000.0001)                 1.510670709475228E+07,      /* J = 69 */
(PID.TID 0000.0001)                 1.509704819520219E+07,      /* J = 70 */
(PID.TID 0000.0001)      . . .
(PID.TID 0000.0001)                 1.492263937358227E+07,      /* J = 88 */
(PID.TID 0000.0001)                 1.491292075653607E+07,      /* J = 89 */
(PID.TID 0000.0001)                 1.490319925632773E+07       /* J = 90 */
(PID.TID 0000.0001)     ;
(PID.TID 0000.0001) rAs =  /* rAs(:,1,:,1) ( units: m^2 ) */
(PID.TID 0000.0001)                 1.575925439227048E+07,      /* I =  1 */
(PID.TID 0000.0001)                 1.575925435623096E+07,      /* I =  2 */
(PID.TID 0000.0001)                 1.575925432019143E+07,      /* I =  3 */
(PID.TID 0000.0001)      . . .
(PID.TID 0000.0001)                 1.575925436524084E+07,      /* I = 21 */
(PID.TID 0000.0001)                 1.575925442831001E+07,      /* I = 22 */
(PID.TID 0000.0001)                 1.575925441029024E+07,      /* I = 23 */
(PID.TID 0000.0001)                 1.575925440128037E+07,      /* I = 24 */
(PID.TID 0000.0001)                 1.575925441930013E+07,      /* I = 25 */
(PID.TID 0000.0001)                 1.575925442831001E+07,      /* I = 26 */
(PID.TID 0000.0001)      . . .
(PID.TID 0000.0001)                 1.575925445533966E+07,      /* I = 43 */
(PID.TID 0000.0001)                 1.575925438326060E+07,      /* I = 44 */
(PID.TID 0000.0001)                 1.575925433821119E+07,      /* I = 45 */
(PID.TID 0000.0001)                 1.575925443731989E+07,      /* I = 46 */
(PID.TID 0000.0001)                 1.575925449137918E+07,      /* I = 47 */
(PID.TID 0000.0001)                 1.575925450939894E+07,      /* I = 48 */
(PID.TID 0000.0001)      . . .
(PID.TID 0000.0001)                 1.575925443731989E+07,      /* I = 65 */
(PID.TID 0000.0001)                 1.575925452741871E+07,      /* I = 66 */
(PID.TID 0000.0001)                 1.575925447335942E+07,      /* I = 67 */
(PID.TID 0000.0001)                 1.575925444632977E+07,      /* I = 68 */
(PID.TID 0000.0001)                 1.575925437425072E+07,      /* I = 69 */
(PID.TID 0000.0001)                 1.575925442831001E+07,      /* I = 70 */
(PID.TID 0000.0001)      . . .
(PID.TID 0000.0001)                 1.575925442831001E+07,      /* I = 88 */
(PID.TID 0000.0001)                 1.575925438326060E+07,      /* I = 89 */
(PID.TID 0000.0001)                 1.575925430217167E+07       /* I = 90 */
(PID.TID 0000.0001)     ;
(PID.TID 0000.0001) rAs =  /* rAs(1,:,1,:) ( units: m^2 ) */
(PID.TID 0000.0001)                 1.575925439227048E+07,      /* J =  1 */
(PID.TID 0000.0001)                 1.574987336648281E+07,      /* J =  2 */
(PID.TID 0000.0001)                 1.574048753842818E+07,      /* J =  3 */
(PID.TID 0000.0001)      . . .
(PID.TID 0000.0001)                 1.557075023236647E+07,      /* J = 21 */
(PID.TID 0000.0001)                 1.556127768420019E+07,      /* J = 22 */
(PID.TID 0000.0001)                 1.555180086534997E+07,      /* J = 23 */
(PID.TID 0000.0001)                 1.554231966769724E+07,      /* J = 24 */
(PID.TID 0000.0001)                 1.553283419936056E+07,      /* J = 25 */
(PID.TID 0000.0001)                 1.552334437024112E+07,      /* J = 26 */
(PID.TID 0000.0001)      . . .
(PID.TID 0000.0001)                 1.536138419587098E+07,      /* J = 43 */
(PID.TID 0000.0001)                 1.535182105334392E+07,      /* J = 44 */
(PID.TID 0000.0001)                 1.534225391042936E+07,      /* J = 45 */
(PID.TID 0000.0001)                 1.533268290227554E+07,      /* J = 46 */
(PID.TID 0000.0001)                 1.532310822709986E+07,      /* J = 47 */
(PID.TID 0000.0001)                 1.531352957856633E+07,      /* J = 48 */
(PID.TID 0000.0001)      . . .
(PID.TID 0000.0001)                 1.515013023776777E+07,      /* J = 65 */
(PID.TID 0000.0001)                 1.514048662798697E+07,      /* J = 66 */
(PID.TID 0000.0001)                 1.513083956742147E+07,      /* J = 67 */
(PID.TID 0000.0001)                 1.512118902003174E+07,      /* J = 68 */
(PID.TID 0000.0001)                 1.511153524710436E+07,      /* J = 69 */
(PID.TID 0000.0001)                 1.510187814953061E+07,      /* J = 70 */
(PID.TID 0000.0001)      . . .
(PID.TID 0000.0001)                 1.492749759190968E+07,      /* J = 88 */
(PID.TID 0000.0001)                 1.491778042545444E+07,      /* J = 89 */
(PID.TID 0000.0001)                 1.490806039385681E+07       /* J = 90 */
(PID.TID 0000.0001)     ;
(PID.TID 0000.0001) globalArea = /* Integrated horizontal Area (m^2) */
(PID.TID 0000.0001)                 1.130146465161621E+13
(PID.TID 0000.0001)     ;
(PID.TID 0000.0001) hasWetCSCorners = /* Domain contains CS corners (True/False) */
(PID.TID 0000.0001)                   F
(PID.TID 0000.0001)     ;
(PID.TID 0000.0001) // =======================================================
(PID.TID 0000.0001) // End of Model config. summary
(PID.TID 0000.0001) // =======================================================
(PID.TID 0000.0001) 
(PID.TID 0000.0001) == Packages configuration : Check & print summary ==
(PID.TID 0000.0001) 
(PID.TID 0000.0001) OBCS_CHECK: #define ALLOW_OBCS
(PID.TID 0000.0001) OBCS_CHECK: start summary:
(PID.TID 0000.0001) useOBCSprescribe = /* prescribe OB values */
(PID.TID 0000.0001)                   T
(PID.TID 0000.0001)     ;
(PID.TID 0000.0001) useOBCSbalance = /* balance the flow through OB */
(PID.TID 0000.0001)                   T
(PID.TID 0000.0001)     ;
(PID.TID 0000.0001) OBCS_balanceFacN = /* Northern OB Factor for balancing OB flow [-] */
(PID.TID 0000.0001)                -1.000000000000000E+00
(PID.TID 0000.0001)     ;
(PID.TID 0000.0001) OBCS_balanceFacS = /* Southern OB Factor for balancing OB flow [-] */
(PID.TID 0000.0001)                -1.000000000000000E+00
(PID.TID 0000.0001)     ;
(PID.TID 0000.0001) OBCS_balanceFacE = /* Eastern  OB Factor for balancing OB flow [-] */
(PID.TID 0000.0001)                -1.000000000000000E+00
(PID.TID 0000.0001)     ;
(PID.TID 0000.0001) OBCS_balanceFacW = /* Western  OB Factor for balancing OB flow [-] */
(PID.TID 0000.0001)                -1.000000000000000E+00
(PID.TID 0000.0001)     ;
(PID.TID 0000.0001) OBCS_uvApplyFac = /* Factor to apply to U,V 2nd column/row */
(PID.TID 0000.0001)                 1.000000000000000E+00
(PID.TID 0000.0001)     ;
(PID.TID 0000.0001) OBCS_u1_adv_T = /* Temp uses upwind adv-scheme @ OB */
(PID.TID 0000.0001)                       1
(PID.TID 0000.0001)     ;
(PID.TID 0000.0001) OBCS_u1_adv_S = /* Salt uses upwind adv-scheme @ OB */
(PID.TID 0000.0001)                       1
(PID.TID 0000.0001)     ;
(PID.TID 0000.0001) OBCS_monitorFreq = /* monitor output frequency [s] */
(PID.TID 0000.0001)                 2.400000000000000E+02
(PID.TID 0000.0001)     ;
(PID.TID 0000.0001) OBCS_monSelect = /* select group of variables to monitor */
(PID.TID 0000.0001)                       3
(PID.TID 0000.0001)     ;
(PID.TID 0000.0001) useOBCStides = /* apply tidal forcing through OB */
(PID.TID 0000.0001)                   T
(PID.TID 0000.0001)     ;
(PID.TID 0000.0001) tidalPeriod = /* (s) */
(PID.TID 0000.0001)                 4.471416500000000E+04,      /* I =  1 */
(PID.TID 0000.0001)                 4.320000100000000E+04,      /* I =  2 */
(PID.TID 0000.0001)                 4.557005400000000E+04,      /* I =  3 */
(PID.TID 0000.0001)                 4.308205000000000E+04,      /* I =  4 */
(PID.TID 0000.0001)                 8.616407700000000E+04,      /* I =  5 */
(PID.TID 0000.0001)                 9.294963600000000E+04,      /* I =  6 */
(PID.TID 0000.0001)                 8.663720000000000E+04,      /* I =  7 */
(PID.TID 0000.0001)                 9.672608600000000E+04,      /* I =  8 */
(PID.TID 0000.0001)                 1.180295546000000E+06,      /* I =  9 */
(PID.TID 0000.0001)                 2.380715864000000E+06,      /* I = 10 */
(PID.TID 0000.0001)                 2.235709100000000E+04,      /* I = 11 */
(PID.TID 0000.0001)                 2.197202200000000E+04,      /* I = 12 */
(PID.TID 0000.0001)                 2.256904200000000E+04       /* I = 13 */
(PID.TID 0000.0001)     ;
(PID.TID 0000.0001) OB_indexNone = /* null value for OB index (i.e. no OB) */
(PID.TID 0000.0001)                     -99
(PID.TID 0000.0001)     ;
(PID.TID 0000.0001) ======== Tile bi=   1 , bj=   1 ========
(PID.TID 0000.0001)  OB_Jn = /* Northern OB local indices */
(PID.TID 0000.0001)   106 @      -99                            /* I = -7: 98 */
(PID.TID 0000.0001)  OB_Js = /* Southern OB local indices */
(PID.TID 0000.0001)   106 @        8                            /* I = -7: 98 */
(PID.TID 0000.0001)  OB_Ie = /* Eastern OB local indices */
(PID.TID 0000.0001)   106 @      -99                            /* J = -7: 98 */
(PID.TID 0000.0001)  OB_Iw = /* Western OB local indices */
(PID.TID 0000.0001)   106 @      -99                            /* J = -7: 98 */
(PID.TID 0000.0001) OBCS_CHECK: end summary.
(PID.TID 0000.0001) OBCS_CHECK: set-up OK
(PID.TID 0000.0001) OBCS_CHECK: check Inside Mask and OB locations: OK
(PID.TID 0000.0001) KPP_CHECK: #define ALLOW_KPP
(PID.TID 0000.0001)  kpp_freq = /* frequency of KPP calculation */
(PID.TID 0000.0001)                 2.400000000000000E+02
(PID.TID 0000.0001)     ;
(PID.TID 0000.0001) KPP_ghatUseTotalDiffus= /* non-local term fct of total diffus */
(PID.TID 0000.0001)                   F
(PID.TID 0000.0001)     ;
(PID.TID 0000.0001) KPPuseDoubleDiff = /* include double diffusive contrib */
(PID.TID 0000.0001)                   F
(PID.TID 0000.0001)     ;
(PID.TID 0000.0001) LimitHblStable = /* limits depth of hbl if stable cond.*/
(PID.TID 0000.0001)                   T
(PID.TID 0000.0001)     ;
(PID.TID 0000.0001)  minKPPhbl = /* minimum KPPhbl value [m] */
(PID.TID 0000.0001)                 2.500000000000000E+00
(PID.TID 0000.0001)     ;
(PID.TID 0000.0001)  epsln     = /* constant [-] */
(PID.TID 0000.0001)                 9.999999999999999E-21
(PID.TID 0000.0001)     ;
(PID.TID 0000.0001)  phepsi    = /* constant [-] */
(PID.TID 0000.0001)                 1.000000000000000E-10
(PID.TID 0000.0001)     ;
(PID.TID 0000.0001)  epsilon   = /* constant [-] */
(PID.TID 0000.0001)                 1.000000000000000E-01
(PID.TID 0000.0001)     ;
(PID.TID 0000.0001)  vonk      = /* Von Karmans constant [-] */
(PID.TID 0000.0001)                 4.000000000000000E-01
(PID.TID 0000.0001)     ;
(PID.TID 0000.0001)  dB_dz     = /* maximum N^2 in mixed layer [s^-2] */
(PID.TID 0000.0001)                 5.200000000000000E-05
(PID.TID 0000.0001)     ;
(PID.TID 0000.0001)  conc1     = /* scalar constant [-] */
(PID.TID 0000.0001)                 5.000000000000000E+00
(PID.TID 0000.0001)     ;
(PID.TID 0000.0001)  conam     = /* scalar constant [-] */
(PID.TID 0000.0001)                 1.257000000000000E+00
(PID.TID 0000.0001)     ;
(PID.TID 0000.0001)  concm     = /* scalar constant [-] */
(PID.TID 0000.0001)                 8.380000000000001E+00
(PID.TID 0000.0001)     ;
(PID.TID 0000.0001)  conc2     = /* scalar constant [-] */
(PID.TID 0000.0001)                 1.600000000000000E+01
(PID.TID 0000.0001)     ;
(PID.TID 0000.0001)  conas     = /* scalar constant [-] */
(PID.TID 0000.0001)                -2.886000000000000E+01
(PID.TID 0000.0001)     ;
(PID.TID 0000.0001)  concs     = /* scalar constant [-] */
(PID.TID 0000.0001)                 9.895999999999999E+01
(PID.TID 0000.0001)     ;
(PID.TID 0000.0001)  conc3     = /* scalar constant [-] */
(PID.TID 0000.0001)                 1.600000000000000E+01
(PID.TID 0000.0001)     ;
(PID.TID 0000.0001)  zetam     = /* scalar constant [-] */
(PID.TID 0000.0001)                -2.000000000000000E-01
(PID.TID 0000.0001)     ;
(PID.TID 0000.0001)  zetas     = /* scalar constant [-] */
(PID.TID 0000.0001)                -1.000000000000000E+00
(PID.TID 0000.0001)     ;
(PID.TID 0000.0001)  Ricr      = /* critical bulk Richardson Number [-] */
(PID.TID 0000.0001)                 3.000000000000000E-01
(PID.TID 0000.0001)     ;
(PID.TID 0000.0001)  cekman    = /* coeff for Ekman depth [-] */
(PID.TID 0000.0001)                 7.000000000000000E-01
(PID.TID 0000.0001)     ;
(PID.TID 0000.0001)  cmonob    = /* coeff for Monin-Obukhov depth [-] */
(PID.TID 0000.0001)                 1.000000000000000E+00
(PID.TID 0000.0001)     ;
(PID.TID 0000.0001)  concv     = /* buoyancy freq ratio [-] */
(PID.TID 0000.0001)                 1.800000000000000E+00
(PID.TID 0000.0001)     ;
(PID.TID 0000.0001)  hbf       = /* solar radiation depth ratio [-] */
(PID.TID 0000.0001)                 1.000000000000000E+00
(PID.TID 0000.0001)     ;
(PID.TID 0000.0001)  zmin      = /* minimum for zehat in table [m3/s3] */
(PID.TID 0000.0001)                -4.000000000000000E-07
(PID.TID 0000.0001)     ;
(PID.TID 0000.0001)  zmax      = /* maximum for zehat in table [m3/s3] */
(PID.TID 0000.0001)                 0.000000000000000E+00
(PID.TID 0000.0001)     ;
(PID.TID 0000.0001)  umin      = /* minimum for ustar in table [m/s] */
(PID.TID 0000.0001)                 0.000000000000000E+00
(PID.TID 0000.0001)     ;
(PID.TID 0000.0001)  umax      = /* maximum for ustar in table [m/s] */
(PID.TID 0000.0001)                 4.000000000000000E-02
(PID.TID 0000.0001)     ;
(PID.TID 0000.0001) num_v_smooth_Ri = /* number of vertical smoothing */
(PID.TID 0000.0001)                       0
(PID.TID 0000.0001)     ;
(PID.TID 0000.0001)  Riinfty   = /* shear instability Ri number limit [-] */
(PID.TID 0000.0001)                 7.000000000000000E-01
(PID.TID 0000.0001)     ;
(PID.TID 0000.0001)  BVSQcon   = /* Brunt-Vaisala squared (=N^2) [s^-2] */
(PID.TID 0000.0001)                -2.000000000000000E-05
(PID.TID 0000.0001)     ;
(PID.TID 0000.0001)  difm0     = /* max viscosity from shear instab. [m2/s] */
(PID.TID 0000.0001)                 5.000000000000000E-03
(PID.TID 0000.0001)     ;
(PID.TID 0000.0001)  difs0     = /* max diffusiv. from shear instab. [m2/s] */
(PID.TID 0000.0001)                 5.000000000000000E-03
(PID.TID 0000.0001)     ;
(PID.TID 0000.0001)  dift0     = /* max diffusiv. from shear instab. [m2/s] */
(PID.TID 0000.0001)                 5.000000000000000E-03
(PID.TID 0000.0001)     ;
(PID.TID 0000.0001)  difmcon   = /* convective viscosity [m2/s] */
(PID.TID 0000.0001)                 1.000000000000000E-01
(PID.TID 0000.0001)     ;
(PID.TID 0000.0001)  difscon   = /* convective diffusiv. [m2/s] */
(PID.TID 0000.0001)                 1.000000000000000E-01
(PID.TID 0000.0001)     ;
(PID.TID 0000.0001)  diftcon   = /* convective diffusiv. [m2/s] */
(PID.TID 0000.0001)                 1.000000000000000E-01
(PID.TID 0000.0001)     ;
(PID.TID 0000.0001)  Rrho0     = /* double diffusion density ratio [-] */
(PID.TID 0000.0001)                 1.900000000000000E+00
(PID.TID 0000.0001)     ;
(PID.TID 0000.0001)  dsfmax    = /* max diffusiv. for salt fingering [m2/s] */
(PID.TID 0000.0001)                 1.000000000000000E-02
(PID.TID 0000.0001)     ;
(PID.TID 0000.0001)  cstar     = /* coeff for non-locak transport [-] */
(PID.TID 0000.0001)                 1.000000000000000E+01
(PID.TID 0000.0001)     ;
(PID.TID 0000.0001) KPPwriteState = /* write KPP fields to file */
(PID.TID 0000.0001)                   F
(PID.TID 0000.0001)     ;
(PID.TID 0000.0001)  kpp_dumpFreq = /* dump freq of KPP output */
(PID.TID 0000.0001)                 0.000000000000000E+00
(PID.TID 0000.0001)     ;
(PID.TID 0000.0001)  kpp_taveFreq = /* time-averaging freq of KPP output */
(PID.TID 0000.0001)                 0.000000000000000E+00
(PID.TID 0000.0001)     ;
(PID.TID 0000.0001) 
(PID.TID 0000.0001) EXF_CHECK: #define ALLOW_EXF
(PID.TID 0000.0001) GAD_CHECK: #define ALLOW_GENERIC_ADVDIFF
(PID.TID 0000.0001) // =======================================================
(PID.TID 0000.0001) // Check Model config. (CONFIG_CHECK):
(PID.TID 0000.0001) // CONFIG_CHECK : Normal End
(PID.TID 0000.0001) // =======================================================
(PID.TID 0000.0001) 
(PID.TID 0000.0001)  MDS_READ_FIELD: opening global file: U0_2160x540x100.bin
(PID.TID 0000.0001)  MDS_READ_FIELD: opening global file: V0_2160x540x100.bin
(PID.TID 0000.0001)  MDS_READ_FIELD: opening global file: T0_2160x540x100.bin
(PID.TID 0000.0001)  MDS_READ_FIELD: opening global file: S0_2160x540x100.bin
(PID.TID 0000.0001) Start initial hydrostatic pressure computation
(PID.TID 0000.0001) Pressure is predetermined for buoyancyRelation OCEANIC
(PID.TID 0000.0001) 
(PID.TID 0000.0001)  write diagnostics summary to file ioUnit:      6
Iter.Nb:         0 ; Time(s):  0.0000000000000E+00
------------------------------------------------------------------------
2D/3D diagnostics: Number of lists:     2
------------------------------------------------------------------------
listId=    1 ; file name: diags/surface
 nFlds, nActive,       freq     &     phase        , nLev               
    5  |    5  |      3600.000000         0.000000 |   1
 levels:   1
 diag# | name   |   ipt  |  iMate | kLev|   count |   mate.C|           
    23 |ETAN    |      1 |      0 |   1 |       0 |
    80 |oceTAUX |      2 |      3 |   1 |       0 |       0 |
    81 |oceTAUY |      3 |      2 |   1 |       0 |       0 |
   185 |EXFuwind|      4 |      0 |   1 |       0 |
   186 |EXFvwind|      5 |      0 |   1 |       0 |
------------------------------------------------------------------------
listId=    2 ; file name: diags/interior
 nFlds, nActive,       freq     &     phase        , nLev               
    5  |    5  |      3600.000000         0.000000 | 100
 levels:   1   2   3   4   5   6   7   8   9  10  11  12  13  14  15  16  17  18  19  20  21  22  23  24  25
 levels:  26  27  28  29  30  31  32  33  34  35  36  37  38  39  40  41  42  43  44  45  46  47  48  49  50
 levels:  51  52  53  54  55  56  57  58  59  60  61  62  63  64  65  66  67  68  69  70  71  72  73  74  75
 levels:  76  77  78  79  80  81  82  83  84  85  86  87  88  89  90  91  92  93  94  95  96  97  98  99 100
 diag# | name   |   ipt  |  iMate | kLev|   count |   mate.C|           
    26 |THETA   |      6 |      0 | 100 |       0 |
    27 |SALT    |    106 |      0 | 100 |       0 |
    30 |UVEL    |    206 |    306 | 100 |       0 |       0 |
    31 |VVEL    |    306 |    206 | 100 |       0 |       0 |
    32 |WVEL    |    406 |      0 | 100 |       0 |
------------------------------------------------------------------------
Global & Regional Statistics diagnostics: Number of lists:     0
------------------------------------------------------------------------
(PID.TID 0000.0001)  MDS_READ_SEC_XZ: opening global file: OBNam_1620x13.bin
(PID.TID 0000.0001)  MDS_READ_SEC_XZ: opening global file: OBNph_1620x13.bin
(PID.TID 0000.0001)  MDS_READ_SEC_XZ: opening global file: OBSam_1620x13.bin
(PID.TID 0000.0001)  MDS_READ_SEC_XZ: opening global file: OBSph_1620x13.bin
(PID.TID 0000.0001)  MDS_READ_SEC_YZ: opening global file: OBEam_1620x13.bin
(PID.TID 0000.0001)  MDS_READ_SEC_YZ: opening global file: OBEph_1620x13.bin
(PID.TID 0000.0001)  MDS_READ_SEC_YZ: opening global file: OBWam_1620x13.bin
(PID.TID 0000.0001)  MDS_READ_SEC_YZ: opening global file: OBWph_1620x13.bin
(PID.TID 0000.0001)  MDS_READ_SEC_XZ: opening global file: OBNu_1620x100x26.bin
(PID.TID 0000.0001)  MDS_READ_SEC_XZ: opening global file: OBNu_1620x100x26.bin
(PID.TID 0000.0001)  MDS_READ_SEC_XZ: opening global file: OBNv_1620x100x26.bin
(PID.TID 0000.0001)  MDS_READ_SEC_XZ: opening global file: OBNv_1620x100x26.bin
(PID.TID 0000.0001)  MDS_READ_SEC_XZ: opening global file: OBNt_1620x100x26.bin
(PID.TID 0000.0001)  MDS_READ_SEC_XZ: opening global file: OBNt_1620x100x26.bin
(PID.TID 0000.0001)  MDS_READ_SEC_XZ: opening global file: OBNs_1620x100x26.bin
(PID.TID 0000.0001)  MDS_READ_SEC_XZ: opening global file: OBNs_1620x100x26.bin
(PID.TID 0000.0001)  MDS_READ_SEC_XZ: opening global file: OBSu_1620x100x26.bin
(PID.TID 0000.0001)  MDS_READ_SEC_XZ: opening global file: OBSu_1620x100x26.bin
(PID.TID 0000.0001)  MDS_READ_SEC_XZ: opening global file: OBSv_1620x100x26.bin
(PID.TID 0000.0001)  MDS_READ_SEC_XZ: opening global file: OBSv_1620x100x26.bin
(PID.TID 0000.0001)  MDS_READ_SEC_XZ: opening global file: OBSt_1620x100x26.bin
(PID.TID 0000.0001)  MDS_READ_SEC_XZ: opening global file: OBSt_1620x100x26.bin
(PID.TID 0000.0001)  MDS_READ_SEC_XZ: opening global file: OBSs_1620x100x26.bin
(PID.TID 0000.0001)  MDS_READ_SEC_XZ: opening global file: OBSs_1620x100x26.bin
(PID.TID 0000.0001)  MDS_READ_SEC_YZ: opening global file: OBEu_1620x100x26.bin
(PID.TID 0000.0001)  MDS_READ_SEC_YZ: opening global file: OBEu_1620x100x26.bin
(PID.TID 0000.0001)  MDS_READ_SEC_YZ: opening global file: OBEv_1620x100x26.bin
(PID.TID 0000.0001)  MDS_READ_SEC_YZ: opening global file: OBEv_1620x100x26.bin
(PID.TID 0000.0001)  MDS_READ_SEC_YZ: opening global file: OBEt_1620x100x26.bin
(PID.TID 0000.0001)  MDS_READ_SEC_YZ: opening global file: OBEt_1620x100x26.bin
(PID.TID 0000.0001)  MDS_READ_SEC_YZ: opening global file: OBEs_1620x100x26.bin
(PID.TID 0000.0001)  MDS_READ_SEC_YZ: opening global file: OBEs_1620x100x26.bin
(PID.TID 0000.0001)  MDS_READ_SEC_YZ: opening global file: OBWu_1620x100x26.bin
(PID.TID 0000.0001)  MDS_READ_SEC_YZ: opening global file: OBWu_1620x100x26.bin
(PID.TID 0000.0001)  MDS_READ_SEC_YZ: opening global file: OBWv_1620x100x26.bin
(PID.TID 0000.0001)  MDS_READ_SEC_YZ: opening global file: OBWv_1620x100x26.bin
(PID.TID 0000.0001)  MDS_READ_SEC_YZ: opening global file: OBWt_1620x100x26.bin
(PID.TID 0000.0001)  MDS_READ_SEC_YZ: opening global file: OBWt_1620x100x26.bin
(PID.TID 0000.0001)  MDS_READ_SEC_YZ: opening global file: OBWs_1620x100x26.bin
(PID.TID 0000.0001)  MDS_READ_SEC_YZ: opening global file: OBWs_1620x100x26.bin
(PID.TID 0000.0001) // =======================================================
(PID.TID 0000.0001) // Model current state
(PID.TID 0000.0001) // =======================================================
(PID.TID 0000.0001) 
(PID.TID 0000.0001) // =======================================================
(PID.TID 0000.0001) // Begin MONITOR dynamic field statistics
(PID.TID 0000.0001) // =======================================================
(PID.TID 0000.0001) %MON time_tsnumber                =                     0
(PID.TID 0000.0001) %MON time_secondsf                =   0.0000000000000E+00
(PID.TID 0000.0001) %MON dynstat_eta_max              =   0.0000000000000E+00
(PID.TID 0000.0001) %MON dynstat_eta_min              =   0.0000000000000E+00
(PID.TID 0000.0001) %MON dynstat_eta_mean             =   0.0000000000000E+00
(PID.TID 0000.0001) %MON dynstat_eta_sd               =   0.0000000000000E+00
(PID.TID 0000.0001) %MON dynstat_eta_del2             =   0.0000000000000E+00
(PID.TID 0000.0001) %MON dynstat_uvel_max             =   8.8630950450897E-01
(PID.TID 0000.0001) %MON dynstat_uvel_min             =  -1.8758810247487E+00
(PID.TID 0000.0001) %MON dynstat_uvel_mean            =   1.6622168883347E-03
(PID.TID 0000.0001) %MON dynstat_uvel_sd              =   5.0461746707727E-02
(PID.TID 0000.0001) %MON dynstat_uvel_del2            =   3.8969736556653E-07
(PID.TID 0000.0001) %MON dynstat_vvel_max             =   1.2655940055847E+00
(PID.TID 0000.0001) %MON dynstat_vvel_min             =  -6.7179697751999E-01
(PID.TID 0000.0001) %MON dynstat_vvel_mean            =   2.2179888067486E-03
(PID.TID 0000.0001) %MON dynstat_vvel_sd              =   5.0163613771689E-02
(PID.TID 0000.0001) %MON dynstat_vvel_del2            =   3.0816790039653E-07
(PID.TID 0000.0001) %MON dynstat_wvel_max             =   8.1181920477738E-02
(PID.TID 0000.0001) %MON dynstat_wvel_min             =  -1.0612269473950E-01
(PID.TID 0000.0001) %MON dynstat_wvel_mean            =  -1.8987776537478E-06
(PID.TID 0000.0001) %MON dynstat_wvel_sd              =   1.3420675386383E-03
(PID.TID 0000.0001) %MON dynstat_wvel_del2            =   3.7763823391248E-07
(PID.TID 0000.0001) %MON dynstat_theta_max            =   2.6144617080688E+01
(PID.TID 0000.0001) %MON dynstat_theta_min            =   1.4688636064529E+00
(PID.TID 0000.0001) %MON dynstat_theta_mean           =   5.5098811079639E+00
(PID.TID 0000.0001) %MON dynstat_theta_sd             =   4.7735348263522E+00
(PID.TID 0000.0001) %MON dynstat_theta_del2           =   4.0189244228698E-06
(PID.TID 0000.0001) %MON dynstat_salt_max             =   3.9185241699219E+01
(PID.TID 0000.0001) %MON dynstat_salt_min             =   3.3089591979980E+01
(PID.TID 0000.0001) %MON dynstat_salt_mean            =   3.5173374558354E+01
(PID.TID 0000.0001) %MON dynstat_salt_sd              =   3.7891790538390E-01
(PID.TID 0000.0001) %MON dynstat_salt_del2            =   4.9655867703385E-07
(PID.TID 0000.0001) %MON dynstat_sst_max              =   2.6144517898560E+01
(PID.TID 0000.0001) %MON dynstat_sst_min              =   4.0907053947449E+00
(PID.TID 0000.0001) %MON dynstat_sst_mean             =   1.9650343849242E+01
(PID.TID 0000.0001) %MON dynstat_sst_sd               =   3.6388129721395E+00
(PID.TID 0000.0001) %MON dynstat_sst_del2             =   1.9236263370514E-05
(PID.TID 0000.0001) %MON dynstat_sss_max              =   3.7335128784180E+01
(PID.TID 0000.0001) %MON dynstat_sss_min              =   3.3089591979980E+01
(PID.TID 0000.0001) %MON dynstat_sss_mean             =   3.5867950381789E+01
(PID.TID 0000.0001) %MON dynstat_sss_sd               =   4.8717346683800E-01
(PID.TID 0000.0001) %MON dynstat_sss_del2             =   5.0430181870384E-06
(PID.TID 0000.0001) %MON forcing_qnet_max             =   0.0000000000000E+00
(PID.TID 0000.0001) %MON forcing_qnet_min             =   0.0000000000000E+00
(PID.TID 0000.0001) %MON forcing_qnet_mean            =   0.0000000000000E+00
(PID.TID 0000.0001) %MON forcing_qnet_sd              =   0.0000000000000E+00
(PID.TID 0000.0001) %MON forcing_qnet_del2            =   0.0000000000000E+00
(PID.TID 0000.0001) %MON forcing_qsw_max              =   0.0000000000000E+00
(PID.TID 0000.0001) %MON forcing_qsw_min              =   0.0000000000000E+00
(PID.TID 0000.0001) %MON forcing_qsw_mean             =   0.0000000000000E+00
(PID.TID 0000.0001) %MON forcing_qsw_sd               =   0.0000000000000E+00
(PID.TID 0000.0001) %MON forcing_qsw_del2             =   0.0000000000000E+00
(PID.TID 0000.0001) %MON forcing_empmr_max            =   0.0000000000000E+00
(PID.TID 0000.0001) %MON forcing_empmr_min            =   0.0000000000000E+00
(PID.TID 0000.0001) %MON forcing_empmr_mean           =   0.0000000000000E+00
(PID.TID 0000.0001) %MON forcing_empmr_sd             =   0.0000000000000E+00
(PID.TID 0000.0001) %MON forcing_empmr_del2           =   0.0000000000000E+00
(PID.TID 0000.0001) %MON forcing_fu_max               =   0.0000000000000E+00
(PID.TID 0000.0001) %MON forcing_fu_min               =   0.0000000000000E+00
(PID.TID 0000.0001) %MON forcing_fu_mean              =   0.0000000000000E+00
(PID.TID 0000.0001) %MON forcing_fu_sd                =   0.0000000000000E+00
(PID.TID 0000.0001) %MON forcing_fu_del2              =   0.0000000000000E+00
(PID.TID 0000.0001) %MON forcing_fv_max               =   0.0000000000000E+00
(PID.TID 0000.0001) %MON forcing_fv_min               =   0.0000000000000E+00
(PID.TID 0000.0001) %MON forcing_fv_mean              =   0.0000000000000E+00
(PID.TID 0000.0001) %MON forcing_fv_sd                =   0.0000000000000E+00
(PID.TID 0000.0001) %MON forcing_fv_del2              =   0.0000000000000E+00
(PID.TID 0000.0001) %MON trAdv_CFL_u_max              =   0.0000000000000E+00
(PID.TID 0000.0001) %MON trAdv_CFL_v_max              =   0.0000000000000E+00
(PID.TID 0000.0001) %MON trAdv_CFL_w_max              =   0.0000000000000E+00
(PID.TID 0000.0001) %MON advcfl_uvel_max              =   1.1856011153417E-01
(PID.TID 0000.0001) %MON advcfl_vvel_max              =   7.6757824391116E-02
(PID.TID 0000.0001) %MON advcfl_wvel_max              =   1.0187778694992E+01
(PID.TID 0000.0001) %MON advcfl_W_hf_max              =   5.0834314777483E+00
(PID.TID 0000.0001) %MON pe_b_mean                    =   0.0000000000000E+00
(PID.TID 0000.0001) %MON ke_max                       =   1.6014428959053E+00
(PID.TID 0000.0001) %MON ke_mean                      =   2.5166740196819E-03
(PID.TID 0000.0001) %MON ke_vol                       =   4.5818637829946E+16
(PID.TID 0000.0001) %MON vort_r_min                   =  -2.7112734146701E-04
(PID.TID 0000.0001) %MON vort_r_max                   =   4.5265161546532E-04
(PID.TID 0000.0001) %MON vort_a_mean                  =   8.2147631912490E-05
(PID.TID 0000.0001) %MON vort_a_sd                    =   1.0110316051482E-05
(PID.TID 0000.0001) %MON vort_p_mean                  =   8.4848854517178E-05
(PID.TID 0000.0001) %MON vort_p_sd                    =   3.4983762006283E-05
(PID.TID 0000.0001) %MON surfExpan_theta_mean         =   1.6948485071266E-05
(PID.TID 0000.0001) %MON surfExpan_salt_mean          =  -1.7153393633960E-04
(PID.TID 0000.0001) // =======================================================
(PID.TID 0000.0001) // End MONITOR dynamic field statistics
(PID.TID 0000.0001) // =======================================================
(PID.TID 0000.0001) // =======================================================
(PID.TID 0000.0001) // Begin OBCS MONITOR field statistics
(PID.TID 0000.0001) // =======================================================
(PID.TID 0000.0001) %MON obc_E_uVel_max               =   2.6256945491454E-01
(PID.TID 0000.0001) %MON obc_E_uVel_min               =  -1.8758810247487E+00
(PID.TID 0000.0001) %MON obc_E_uVel_mean              =  -1.0160330511015E-04
(PID.TID 0000.0001) %MON obc_E_uVel_sd                =   4.3697380235515E-02
(PID.TID 0000.0001) %MON obc_E_uVel_Int               =  -1.9623662313840E+06
(PID.TID 0000.0001) %MON obc_W_uVel_max               =   3.2208083783541E-01
(PID.TID 0000.0001) %MON obc_W_uVel_min               =  -6.9554264922371E-01
(PID.TID 0000.0001) %MON obc_W_uVel_mean              =  -6.7613033682188E-03
(PID.TID 0000.0001) %MON obc_W_uVel_sd                =   8.7549536572285E-02
(PID.TID 0000.0001) %MON obc_W_uVel_Int               =  -4.1173851687418E+07
(PID.TID 0000.0001) %MON obc_N_vVel_max               =   2.9954429695928E-01
(PID.TID 0000.0001) %MON obc_N_vVel_min               =  -1.0434876647961E-01
(PID.TID 0000.0001) %MON obc_N_vVel_mean              =   1.7805297466882E-02
(PID.TID 0000.0001) %MON obc_N_vVel_sd                =   3.9512978281312E-02
(PID.TID 0000.0001) %MON obc_N_vVel_Int               =   1.4645661894208E+08
(PID.TID 0000.0001) %MON obc_S_vVel_max               =   5.8633016884792E-02
(PID.TID 0000.0001) %MON obc_S_vVel_min               =  -8.6627995972816E-02
(PID.TID 0000.0001) %MON obc_S_vVel_mean              =   1.1146064704227E-02
(PID.TID 0000.0001) %MON obc_S_vVel_sd                =   1.1548147174825E-02
(PID.TID 0000.0001) %MON obc_S_vVel_Int               =   1.2404343536369E+08
(PID.TID 0000.0001) %MON obc_E_theta_max              =   2.5544941308807E+01
(PID.TID 0000.0001) %MON obc_E_theta_min              =   1.4632956408867E+00
(PID.TID 0000.0001) %MON obc_E_theta_mean             =   5.4563396690713E+00
(PID.TID 0000.0001) %MON obc_E_theta_sd               =   5.6196026759855E+00
(PID.TID 0000.0001) %MON obc_W_theta_max              =   1.5386950142330E+01
(PID.TID 0000.0001) %MON obc_W_theta_min              =   1.8895907269856E+00
(PID.TID 0000.0001) %MON obc_W_theta_mean             =   4.2052280290808E+00
(PID.TID 0000.0001) %MON obc_W_theta_sd               =   2.6439330853041E+00
(PID.TID 0000.0001) %MON obc_N_theta_max              =   1.6390861045164E+01
(PID.TID 0000.0001) %MON obc_N_theta_min              =   2.0878096669606E+00
(PID.TID 0000.0001) %MON obc_N_theta_mean             =   5.8650817515544E+00
(PID.TID 0000.0001) %MON obc_N_theta_sd               =   3.8421424474263E+00
(PID.TID 0000.0001) %MON obc_S_theta_max              =   2.3211358119330E+01
(PID.TID 0000.0001) %MON obc_S_theta_min              =   1.8976913506980E+00
(PID.TID 0000.0001) %MON obc_S_theta_mean             =   5.4651427527168E+00
(PID.TID 0000.0001) %MON obc_S_theta_sd               =   4.8645400277153E+00
(PID.TID 0000.0001) %MON obc_E_salt_max               =   3.7284821974423E+01
(PID.TID 0000.0001) %MON obc_E_salt_min               =   3.4844694313817E+01
(PID.TID 0000.0001) %MON obc_E_salt_mean              =   3.5160048137740E+01
(PID.TID 0000.0001) %MON obc_E_salt_sd                =   4.6599308778692E-01
(PID.TID 0000.0001) %MON obc_W_salt_max               =   3.5867256908691E+01
(PID.TID 0000.0001) %MON obc_W_salt_min               =   3.3295014070045E+01
(PID.TID 0000.0001) %MON obc_W_salt_mean              =   3.4957946513299E+01
(PID.TID 0000.0001) %MON obc_W_salt_sd                =   2.4692964851778E-01
(PID.TID 0000.0001) %MON obc_N_salt_max               =   3.5910867647958E+01
(PID.TID 0000.0001) %MON obc_N_salt_min               =   3.4917015028685E+01
(PID.TID 0000.0001) %MON obc_N_salt_mean              =   3.5230514764299E+01
(PID.TID 0000.0001) %MON obc_N_salt_sd                =   3.0056289810708E-01
(PID.TID 0000.0001) %MON obc_S_salt_max               =   3.7318346630621E+01
(PID.TID 0000.0001) %MON obc_S_salt_min               =   3.4884963785598E+01
(PID.TID 0000.0001) %MON obc_S_salt_mean              =   3.5182820477531E+01
(PID.TID 0000.0001) %MON obc_S_salt_sd                =   4.4106963168094E-01
(PID.TID 0000.0001) // =======================================================
(PID.TID 0000.0001) // End OBCS MONITOR field statistics
(PID.TID 0000.0001) // =======================================================
(PID.TID 0000.0001)  EXF_INTERP_READ: opening file: jra55/jra55_u10m_2003
(PID.TID 0000.0001)  EXF_INTERP_READ: opening file: jra55/jra55_v10m_2003
(PID.TID 0000.0001)  EXF_INTERP_UV: fileU="jra55/jra55_u10m_2003", rec=     1 , x-Per,P.Sym=    T    T
(PID.TID 0000.0001)  S.edge (j=-1,0,1) : proc= 2.2 1.1 0.0, yIn=  -90.429910  -90.000000  -89.570090
(PID.TID 0000.0001)  N.edge (j=+0,+1,+2) proc= 0.0 1.1 2.2, yIn=   89.570063   90.000000   90.429937
(PID.TID 0000.0001)  EXF_INTERP_READ: opening file: jra55/jra55_u10m_2003
(PID.TID 0000.0001)  EXF_INTERP_READ: opening file: jra55/jra55_v10m_2003
(PID.TID 0000.0001)  EXF_INTERP_UV: fileU="jra55/jra55_u10m_2003", rec=     2 , x-Per,P.Sym=    T    T
(PID.TID 0000.0001)  S.edge (j=-1,0,1) : proc= 2.2 1.1 0.0, yIn=  -90.429910  -90.000000  -89.570090
(PID.TID 0000.0001)  N.edge (j=+0,+1,+2) proc= 0.0 1.1 2.2, yIn=   89.570063   90.000000   90.429937
(PID.TID 0000.0001)  EXF_INTERP_READ: opening file: jra55/jra55_tmp2m_degC_2003
(PID.TID 0000.0001)  EXF_INTERP: file="jra55/jra55_tmp2m_degC_2003", rec=     1 , x-Per,P.Sym=    T    T
(PID.TID 0000.0001)  S.edge (j=-1,0,1) : proc= 2.2 1.1 0.0, yIn=  -90.429910  -90.000000  -89.570090
(PID.TID 0000.0001)  N.edge (j=+0,+1,+2) proc= 0.0 1.1 2.2, yIn=   89.570063   90.000000   90.429937
(PID.TID 0000.0001)  EXF_INTERP_READ: opening file: jra55/jra55_tmp2m_degC_2003
(PID.TID 0000.0001)  EXF_INTERP: file="jra55/jra55_tmp2m_degC_2003", rec=     2 , x-Per,P.Sym=    T    T
(PID.TID 0000.0001)  S.edge (j=-1,0,1) : proc= 2.2 1.1 0.0, yIn=  -90.429910  -90.000000  -89.570090
(PID.TID 0000.0001)  N.edge (j=+0,+1,+2) proc= 0.0 1.1 2.2, yIn=   89.570063   90.000000   90.429937
(PID.TID 0000.0001)  EXF_INTERP_READ: opening file: jra55/jra55_spfh2m_2003
(PID.TID 0000.0001)  EXF_INTERP: file="jra55/jra55_spfh2m_2003", rec=     1 , x-Per,P.Sym=    T    T
(PID.TID 0000.0001)  S.edge (j=-1,0,1) : proc= 2.2 1.1 0.0, yIn=  -90.429910  -90.000000  -89.570090
(PID.TID 0000.0001)  N.edge (j=+0,+1,+2) proc= 0.0 1.1 2.2, yIn=   89.570063   90.000000   90.429937
(PID.TID 0000.0001)  EXF_INTERP_READ: opening file: jra55/jra55_spfh2m_2003
(PID.TID 0000.0001)  EXF_INTERP: file="jra55/jra55_spfh2m_2003", rec=     2 , x-Per,P.Sym=    T    T
(PID.TID 0000.0001)  S.edge (j=-1,0,1) : proc= 2.2 1.1 0.0, yIn=  -90.429910  -90.000000  -89.570090
(PID.TID 0000.0001)  N.edge (j=+0,+1,+2) proc= 0.0 1.1 2.2, yIn=   89.570063   90.000000   90.429937
(PID.TID 0000.0001)  EXF_INTERP_READ: opening file: jra55/jra55_rain_2002
(PID.TID 0000.0001)  EXF_INTERP: file="jra55/jra55_rain_2002", rec=  2920 , x-Per,P.Sym=    T    T
(PID.TID 0000.0001)  S.edge (j=-1,0,1) : proc= 2.2 1.1 0.0, yIn=  -90.429910  -90.000000  -89.570090
(PID.TID 0000.0001)  N.edge (j=+0,+1,+2) proc= 0.0 1.1 2.2, yIn=   89.570063   90.000000   90.429937
(PID.TID 0000.0001)  EXF_INTERP_READ: opening file: jra55/jra55_rain_2003
(PID.TID 0000.0001)  EXF_INTERP: file="jra55/jra55_rain_2003", rec=     1 , x-Per,P.Sym=    T    T
(PID.TID 0000.0001)  S.edge (j=-1,0,1) : proc= 2.2 1.1 0.0, yIn=  -90.429910  -90.000000  -89.570090
(PID.TID 0000.0001)  N.edge (j=+0,+1,+2) proc= 0.0 1.1 2.2, yIn=   89.570063   90.000000   90.429937
(PID.TID 0000.0001)  EXF_INTERP_READ: opening file: jra55/jra55_dsw_2002
(PID.TID 0000.0001)  EXF_INTERP: file="jra55/jra55_dsw_2002", rec=  2920 , x-Per,P.Sym=    T    T
(PID.TID 0000.0001)  S.edge (j=-1,0,1) : proc= 2.2 1.1 0.0, yIn=  -90.429910  -90.000000  -89.570090
(PID.TID 0000.0001)  N.edge (j=+0,+1,+2) proc= 0.0 1.1 2.2, yIn=   89.570063   90.000000   90.429937
(PID.TID 0000.0001)  EXF_INTERP_READ: opening file: jra55/jra55_dsw_2003
(PID.TID 0000.0001)  EXF_INTERP: file="jra55/jra55_dsw_2003", rec=     1 , x-Per,P.Sym=    T    T
(PID.TID 0000.0001)  S.edge (j=-1,0,1) : proc= 2.2 1.1 0.0, yIn=  -90.429910  -90.000000  -89.570090
(PID.TID 0000.0001)  N.edge (j=+0,+1,+2) proc= 0.0 1.1 2.2, yIn=   89.570063   90.000000   90.429937
(PID.TID 0000.0001)  EXF_INTERP_READ: opening file: jra55/jra55_dlw_2002
(PID.TID 0000.0001)  EXF_INTERP: file="jra55/jra55_dlw_2002", rec=  2920 , x-Per,P.Sym=    T    T
(PID.TID 0000.0001)  S.edge (j=-1,0,1) : proc= 2.2 1.1 0.0, yIn=  -90.429910  -90.000000  -89.570090
(PID.TID 0000.0001)  N.edge (j=+0,+1,+2) proc= 0.0 1.1 2.2, yIn=   89.570063   90.000000   90.429937
(PID.TID 0000.0001)  EXF_INTERP_READ: opening file: jra55/jra55_dlw_2003
(PID.TID 0000.0001)  EXF_INTERP: file="jra55/jra55_dlw_2003", rec=     1 , x-Per,P.Sym=    T    T
(PID.TID 0000.0001)  S.edge (j=-1,0,1) : proc= 2.2 1.1 0.0, yIn=  -90.429910  -90.000000  -89.570090
(PID.TID 0000.0001)  N.edge (j=+0,+1,+2) proc= 0.0 1.1 2.2, yIn=   89.570063   90.000000   90.429937
(PID.TID 0000.0001)  EXF_INTERP_READ: opening file: jra55/jra55_pres_tide_2002
(PID.TID 0000.0001)  EXF_INTERP: file="jra55/jra55_pres_tide_2002", rec=  8760 , x-Per,P.Sym=    T    T
(PID.TID 0000.0001)  S.edge (j=-1,0,1) : proc= 2.2 1.1 0.0, yIn=  -90.429910  -90.000000  -89.570090
(PID.TID 0000.0001)  N.edge (j=+0,+1,+2) proc= 0.0 1.1 2.2, yIn=   89.570063   90.000000   90.429937
(PID.TID 0000.0001)  EXF_INTERP_READ: opening file: jra55/jra55_pres_tide_2003
(PID.TID 0000.0001)  EXF_INTERP: file="jra55/jra55_pres_tide_2003", rec=     1 , x-Per,P.Sym=    T    T
(PID.TID 0000.0001)  S.edge (j=-1,0,1) : proc= 2.2 1.1 0.0, yIn=  -90.429910  -90.000000  -89.570090
(PID.TID 0000.0001)  N.edge (j=+0,+1,+2) proc= 0.0 1.1 2.2, yIn=   89.570063   90.000000   90.429937
(PID.TID 0000.0001)  EXF_INTERP_READ: opening file: runoff1p2472-360x180x12.bin
(PID.TID 0000.0001)  EXF_INTERP: file="runoff1p2472-360x180x12.bin", rec=    12 , x-Per,P.Sym=    T    T
(PID.TID 0000.0001)  S.edge (j=-1,0,1) : proc= 2.2 1.1 0.0, yIn=  -90.500000  -90.000000  -89.500000
(PID.TID 0000.0001)  N.edge (j=+0,+1,+2) proc= 0.0 1.1 2.2, yIn=   89.500000   90.000000   90.500000
(PID.TID 0000.0001)  EXF_INTERP_READ: opening file: runoff1p2472-360x180x12.bin
(PID.TID 0000.0001)  EXF_INTERP: file="runoff1p2472-360x180x12.bin", rec=     1 , x-Per,P.Sym=    T    T
(PID.TID 0000.0001)  S.edge (j=-1,0,1) : proc= 2.2 1.1 0.0, yIn=  -90.500000  -90.000000  -89.500000
(PID.TID 0000.0001)  N.edge (j=+0,+1,+2) proc= 0.0 1.1 2.2, yIn=   89.500000   90.000000   90.500000
(PID.TID 0000.0001) // =======================================================
(PID.TID 0000.0001) // Begin MONITOR EXF statistics
(PID.TID 0000.0001) // =======================================================
(PID.TID 0000.0001) %MON exf_tsnumber                 =                     0
(PID.TID 0000.0001) %MON exf_time_sec                 =   0.0000000000000E+00
(PID.TID 0000.0001) %MON exf_ustress_max              =   5.3943194659675E-01
(PID.TID 0000.0001) %MON exf_ustress_min              =  -3.0733204429005E-01
(PID.TID 0000.0001) %MON exf_ustress_mean             =   7.2933006026466E-02
(PID.TID 0000.0001) %MON exf_ustress_sd               =   1.4246076930115E-01
(PID.TID 0000.0001) %MON exf_ustress_del2             =   2.8037566857242E-07
(PID.TID 0000.0001) %MON exf_vstress_max              =   5.9828291410556E-01
(PID.TID 0000.0001) %MON exf_vstress_min              =  -1.8433513036506E-01
(PID.TID 0000.0001) %MON exf_vstress_mean             =   9.9688185524364E-02
(PID.TID 0000.0001) %MON exf_vstress_sd               =   1.3752771554816E-01
(PID.TID 0000.0001) %MON exf_vstress_del2             =   2.3986978661531E-07
(PID.TID 0000.0001) %MON exf_hflux_max                =   1.0771746040119E+03
(PID.TID 0000.0001) %MON exf_hflux_min                =  -1.3859544049814E+02
(PID.TID 0000.0001) %MON exf_hflux_mean               =   3.2588617781889E+02
(PID.TID 0000.0001) %MON exf_hflux_sd                 =   2.1434636323462E+02
(PID.TID 0000.0001) %MON exf_hflux_del2               =   8.7389851516241E-02
(PID.TID 0000.0001) %MON exf_sflux_max                =   2.3097427650446E-07
(PID.TID 0000.0001) %MON exf_sflux_min                =  -9.5795595342356E-07
(PID.TID 0000.0001) %MON exf_sflux_mean               =   4.3559451482316E-08
(PID.TID 0000.0001) %MON exf_sflux_sd                 =   1.0501222657935E-07
(PID.TID 0000.0001) %MON exf_sflux_del2               =   2.3666918507314E-11
(PID.TID 0000.0001) %MON exf_uwind_max                =   1.6141123190736E+01
(PID.TID 0000.0001) %MON exf_uwind_min                =  -1.2897981823435E+01
(PID.TID 0000.0001) %MON exf_uwind_mean               =   3.0192996420025E+00
(PID.TID 0000.0001) %MON exf_uwind_sd                 =   6.7497984324236E+00
(PID.TID 0000.0001) %MON exf_uwind_del2               =   1.6415640958633E-03
(PID.TID 0000.0001) %MON exf_vwind_max                =   1.5090364178864E+01
(PID.TID 0000.0001) %MON exf_vwind_min                =  -1.0679579420269E+01
(PID.TID 0000.0001) %MON exf_vwind_mean               =   4.6767447706201E+00
(PID.TID 0000.0001) %MON exf_vwind_sd                 =   6.0170498251182E+00
(PID.TID 0000.0001) %MON exf_vwind_del2               =   1.7014628130114E-03
(PID.TID 0000.0001) %MON exf_wspeed_max               =   1.8530427202278E+01
(PID.TID 0000.0001) %MON exf_wspeed_min               =   1.0105521285810E-02
(PID.TID 0000.0001) %MON exf_wspeed_mean              =   9.9876548651256E+00
(PID.TID 0000.0001) %MON exf_wspeed_sd                =   3.6054860628152E+00
(PID.TID 0000.0001) %MON exf_wspeed_del2              =   2.3641902479289E-03
(PID.TID 0000.0001) %MON exf_atemp_max                =   2.9779365549984E+02
(PID.TID 0000.0001) %MON exf_atemp_min                =   2.7422282357421E+02
(PID.TID 0000.0001) %MON exf_atemp_mean               =   2.8987749210178E+02
(PID.TID 0000.0001) %MON exf_atemp_sd                 =   4.3354318045478E+00
(PID.TID 0000.0001) %MON exf_atemp_del2               =   3.7040826191655E-03
(PID.TID 0000.0001) %MON exf_aqh_max                  =   1.4680263834069E-02
(PID.TID 0000.0001) %MON exf_aqh_min                  =   3.0385504551820E-03
(PID.TID 0000.0001) %MON exf_aqh_mean                 =   9.5885281173159E-03
(PID.TID 0000.0001) %MON exf_aqh_sd                   =   2.2791482203053E-03
(PID.TID 0000.0001) %MON exf_aqh_del2                 =   2.1314670954051E-06
(PID.TID 0000.0001) %MON exf_lwflux_max               =   1.5865744319212E+02
(PID.TID 0000.0001) %MON exf_lwflux_min               =   1.8160157994578E+00
(PID.TID 0000.0001) %MON exf_lwflux_mean              =   7.2824509364457E+01
(PID.TID 0000.0001) %MON exf_lwflux_sd                =   2.7811148576606E+01
(PID.TID 0000.0001) %MON exf_lwflux_del2              =   1.7303389354789E-02
(PID.TID 0000.0001) %MON exf_evap_max                 =   2.5264451586510E-07
(PID.TID 0000.0001) %MON exf_evap_min                 =  -4.3150877559302E-08
(PID.TID 0000.0001) %MON exf_evap_mean                =   8.0306715870553E-08
(PID.TID 0000.0001) %MON exf_evap_sd                  =   5.6712126992484E-08
(PID.TID 0000.0001) %MON exf_evap_del2                =   2.1779544412040E-11
(PID.TID 0000.0001) %MON exf_precip_max               =   9.5810380621842E-07
(PID.TID 0000.0001) %MON exf_precip_min               =   0.0000000000000E+00
(PID.TID 0000.0001) %MON exf_precip_mean              =   3.5158784191802E-08
(PID.TID 0000.0001) %MON exf_precip_sd                =   7.8175835960804E-08
(PID.TID 0000.0001) %MON exf_precip_del2              =   1.7295965633391E-11
(PID.TID 0000.0001) %MON exf_swflux_max               =   0.0000000000000E+00
(PID.TID 0000.0001) %MON exf_swflux_min               =  -2.3728311731603E+01
(PID.TID 0000.0001) %MON exf_swflux_mean              =  -7.9028939813350E-01
(PID.TID 0000.0001) %MON exf_swflux_sd                =   2.5059802198356E+00
(PID.TID 0000.0001) %MON exf_swflux_del2              =   5.4207397561689E-04
(PID.TID 0000.0001) %MON exf_swdown_max               =   2.6364790812893E+01
(PID.TID 0000.0001) %MON exf_swdown_min               =   0.0000000000000E+00
(PID.TID 0000.0001) %MON exf_swdown_mean              =   8.7809933125944E-01
(PID.TID 0000.0001) %MON exf_swdown_sd                =   2.7844224664840E+00
(PID.TID 0000.0001) %MON exf_swdown_del2              =   6.0230441735209E-04
(PID.TID 0000.0001) %MON exf_lwdown_max               =   4.0176144245630E+02
(PID.TID 0000.0001) %MON exf_lwdown_min               =   2.4830109528323E+02
(PID.TID 0000.0001) %MON exf_lwdown_mean              =   3.4205173678220E+02
(PID.TID 0000.0001) %MON exf_lwdown_sd                =   2.7548445333764E+01
(PID.TID 0000.0001) %MON exf_lwdown_del2              =   7.4678185270184E-02
(PID.TID 0000.0001) %MON exf_apressure_max            =   1.0180446854351E+05
(PID.TID 0000.0001) %MON exf_apressure_min            =   9.5267605942219E+04
(PID.TID 0000.0001) %MON exf_apressure_mean           =   9.9424215071588E+04
(PID.TID 0000.0001) %MON exf_apressure_sd             =   1.5153052913727E+03
(PID.TID 0000.0001) %MON exf_apressure_del2           =   2.1752288361890E+01
(PID.TID 0000.0001) %MON exf_runoff_max               =   4.4374822325994E-08
(PID.TID 0000.0001) %MON exf_runoff_min               =   0.0000000000000E+00
(PID.TID 0000.0001) %MON exf_runoff_mean              =   1.5884801964352E-09
(PID.TID 0000.0001) %MON exf_runoff_sd                =   5.3901974500338E-09
(PID.TID 0000.0001) %MON exf_runoff_del2              =   1.2741192460478E-12
(PID.TID 0000.0001) // =======================================================
(PID.TID 0000.0001) // End MONITOR EXF statistics
(PID.TID 0000.0001) // =======================================================
(PID.TID 0000.0001) SOLVE_FOR_PRESSURE: putPmEinXvector =    F
 cg2d: Sum(rhs),rhsMax =   5.26808316862994E+01  1.75662588017780E-01
(PID.TID 0000.0001)      cg2d_init_res =   1.56014260224838E+01
(PID.TID 0000.0001)      cg2d_iters(min,last) =      -1     326
(PID.TID 0000.0001)      cg2d_last_res =   7.01824501903370E-12
(PID.TID 0000.0001) // =======================================================
(PID.TID 0000.0001) // Begin MONITOR dynamic field statistics
(PID.TID 0000.0001) // =======================================================
(PID.TID 0000.0001) %MON time_tsnumber                =                     1
(PID.TID 0000.0001) %MON time_secondsf                =   2.4000000000000E+02
(PID.TID 0000.0001) %MON dynstat_eta_max              =   9.9726574422665E-01
(PID.TID 0000.0001) %MON dynstat_eta_min              =  -1.3590620259733E+00
(PID.TID 0000.0001) %MON dynstat_eta_mean             =  -1.7915144389706E-03
(PID.TID 0000.0001) %MON dynstat_eta_sd               =   6.6369125881891E-02
(PID.TID 0000.0001) %MON dynstat_eta_del2             =   7.8075075932488E-06
(PID.TID 0000.0001) %MON dynstat_uvel_max             =   8.8171187176651E-01
(PID.TID 0000.0001) %MON dynstat_uvel_min             =  -1.8936212999178E+00
(PID.TID 0000.0001) %MON dynstat_uvel_mean            =   2.1822588209369E-03
(PID.TID 0000.0001) %MON dynstat_uvel_sd              =   5.0224347931196E-02
(PID.TID 0000.0001) %MON dynstat_uvel_del2            =   4.2043896218516E-07
(PID.TID 0000.0001) %MON dynstat_vvel_max             =   1.2707388556385E+00
(PID.TID 0000.0001) %MON dynstat_vvel_min             =  -6.9994706055528E-01
(PID.TID 0000.0001) %MON dynstat_vvel_mean            =   2.5807818879899E-03
(PID.TID 0000.0001) %MON dynstat_vvel_sd              =   5.0257575720780E-02
(PID.TID 0000.0001) %MON dynstat_vvel_del2            =   4.3671216816632E-07
(PID.TID 0000.0001) %MON dynstat_wvel_max             =   3.6313511227807E-02
(PID.TID 0000.0001) %MON dynstat_wvel_min             =  -3.3425803983879E-02
(PID.TID 0000.0001) %MON dynstat_wvel_mean            =  -3.1307650764634E-06
(PID.TID 0000.0001) %MON dynstat_wvel_sd              =   5.9846762204350E-04
(PID.TID 0000.0001) %MON dynstat_wvel_del2            =   9.0670740450691E-08
(PID.TID 0000.0001) %MON dynstat_theta_max            =   2.6141461599939E+01
(PID.TID 0000.0001) %MON dynstat_theta_min            =   1.4688637010588E+00
(PID.TID 0000.0001) %MON dynstat_theta_mean           =   5.5098709290596E+00
(PID.TID 0000.0001) %MON dynstat_theta_sd             =   4.7735031827763E+00
(PID.TID 0000.0001) %MON dynstat_theta_del2           =   4.0094058038468E-06
(PID.TID 0000.0001) %MON dynstat_salt_max             =   3.9184252774339E+01
(PID.TID 0000.0001) %MON dynstat_salt_min             =   3.3089717955618E+01
(PID.TID 0000.0001) %MON dynstat_salt_mean            =   3.5173372985065E+01
(PID.TID 0000.0001) %MON dynstat_salt_sd              =   3.7891604833499E-01
(PID.TID 0000.0001) %MON dynstat_salt_del2            =   4.9541030556502E-07
(PID.TID 0000.0001) %MON dynstat_sst_max              =   2.6138440094161E+01
(PID.TID 0000.0001) %MON dynstat_sst_min              =   4.0763378983887E+00
(PID.TID 0000.0001) %MON dynstat_sst_mean             =   1.9647520563015E+01
(PID.TID 0000.0001) %MON dynstat_sst_sd               =   3.6381508358372E+00
(PID.TID 0000.0001) %MON dynstat_sst_del2             =   1.9150658438127E-05
(PID.TID 0000.0001) %MON dynstat_sss_max              =   3.7335144607442E+01
(PID.TID 0000.0001) %MON dynstat_sss_min              =   3.3089717955618E+01
(PID.TID 0000.0001) %MON dynstat_sss_mean             =   3.5868036060214E+01
(PID.TID 0000.0001) %MON dynstat_sss_sd               =   4.8721791740056E-01
(PID.TID 0000.0001) %MON dynstat_sss_del2             =   5.0258504913512E-06
(PID.TID 0000.0001) %MON forcing_qnet_max             =   1.0936095468116E+03
(PID.TID 0000.0001) %MON forcing_qnet_min             =  -1.6395567530148E+02
(PID.TID 0000.0001) %MON forcing_qnet_mean            =   3.3037704035853E+02
(PID.TID 0000.0001) %MON forcing_qnet_sd              =   2.2009896735697E+02
(PID.TID 0000.0001) %MON forcing_qnet_del2            =   1.2044688888553E-03
(PID.TID 0000.0001) %MON forcing_qsw_max              =   0.0000000000000E+00
(PID.TID 0000.0001) %MON forcing_qsw_min              =  -2.3728311731603E+01
(PID.TID 0000.0001) %MON forcing_qsw_mean             =  -7.9028939813350E-01
(PID.TID 0000.0001) %MON forcing_qsw_sd               =   2.5059802198356E+00
(PID.TID 0000.0001) %MON forcing_qsw_del2             =   8.0702625826315E-06
(PID.TID 0000.0001) %MON forcing_empmr_max            =   2.3097427650446E-04
(PID.TID 0000.0001) %MON forcing_empmr_min            =  -9.5795595342356E-04
(PID.TID 0000.0001) %MON forcing_empmr_mean           =   4.3559451482316E-05
(PID.TID 0000.0001) %MON forcing_empmr_sd             =   1.0501222657935E-04
(PID.TID 0000.0001) %MON forcing_empmr_del2           =   8.3077203898562E-10
(PID.TID 0000.0001) %MON forcing_fu_max               =   5.3939401310332E-01
(PID.TID 0000.0001) %MON forcing_fu_min               =  -3.0727213650202E-01
(PID.TID 0000.0001) %MON forcing_fu_mean              =   7.3044035714387E-02
(PID.TID 0000.0001) %MON forcing_fu_sd                =   1.4247359160070E-01
(PID.TID 0000.0001) %MON forcing_fu_del2              =   2.6378436721410E-07
(PID.TID 0000.0001) %MON forcing_fv_max               =   5.9826021457615E-01
(PID.TID 0000.0001) %MON forcing_fv_min               =  -1.8433456067641E-01
(PID.TID 0000.0001) %MON forcing_fv_mean              =   9.9716638515463E-02
(PID.TID 0000.0001) %MON forcing_fv_sd                =   1.3753657965740E-01
(PID.TID 0000.0001) %MON forcing_fv_del2              =   2.2635511248570E-07
(PID.TID 0000.0001) %MON trAdv_CFL_u_max              =   1.1964542659097E-01
(PID.TID 0000.0001) %MON trAdv_CFL_v_max              =   7.7083886550122E-02
(PID.TID 0000.0001) %MON trAdv_CFL_w_max              =   6.5367555853480E-01
(PID.TID 0000.0001) %MON advcfl_uvel_max              =   1.1968133882681E-01
(PID.TID 0000.0001) %MON advcfl_vvel_max              =   7.7083887927774E-02
(PID.TID 0000.0001) %MON advcfl_wvel_max              =   6.5367555853480E-01
(PID.TID 0000.0001) %MON advcfl_W_hf_max              =   6.5367555853480E-01
(PID.TID 0000.0001) %MON pe_b_mean                    =  -3.6254376525314E-05
(PID.TID 0000.0001) %MON ke_max                       =   1.6130810483432E+00
(PID.TID 0000.0001) %MON ke_mean                      =   2.5113397933715E-03
(PID.TID 0000.0001) %MON ke_vol                       =   4.5818637829946E+16
(PID.TID 0000.0001) %MON vort_r_min                   =  -3.7588176273189E-04
(PID.TID 0000.0001) %MON vort_r_max                   =   5.4370754489599E-04
(PID.TID 0000.0001) %MON vort_a_mean                  =   8.2147631201770E-05
(PID.TID 0000.0001) %MON vort_a_sd                    =   1.0119194732552E-05
(PID.TID 0000.0001) %MON vort_p_mean                  =   8.4848853783088E-05
(PID.TID 0000.0001) %MON vort_p_sd                    =   3.4985914085468E-05
(PID.TID 0000.0001) %MON surfExpan_theta_mean         =   3.6949147515673E-05
(PID.TID 0000.0001) %MON surfExpan_salt_mean          =  -2.3797718153344E-04
(PID.TID 0000.0001) // =======================================================
(PID.TID 0000.0001) // End MONITOR dynamic field statistics
(PID.TID 0000.0001) // =======================================================
(PID.TID 0000.0001) // =======================================================
(PID.TID 0000.0001) // Begin OBCS MONITOR field statistics
(PID.TID 0000.0001) // =======================================================
(PID.TID 0000.0001) %MON obc_E_uVel_max               =   2.6271699532319E-01
(PID.TID 0000.0001) %MON obc_E_uVel_min               =  -1.8936212999178E+00
(PID.TID 0000.0001) %MON obc_E_uVel_mean              =   4.1713709105297E-04
(PID.TID 0000.0001) %MON obc_E_uVel_sd                =   4.3766852122481E-02
(PID.TID 0000.0001) %MON obc_E_uVel_Int               =   8.0565857621721E+06
(PID.TID 0000.0001) %MON obc_W_uVel_max               =   3.2214978243200E-01
(PID.TID 0000.0001) %MON obc_W_uVel_min               =  -6.9549587488143E-01
(PID.TID 0000.0001) %MON obc_W_uVel_mean              =  -6.6022905006703E-03
(PID.TID 0000.0001) %MON obc_W_uVel_sd                =   8.7432928227324E-02
(PID.TID 0000.0001) %MON obc_W_uVel_Int               =  -4.0205521785878E+07
(PID.TID 0000.0001) %MON obc_N_vVel_max               =   3.0015698054133E-01
(PID.TID 0000.0001) %MON obc_N_vVel_min               =  -1.0388203773328E-01
(PID.TID 0000.0001) %MON obc_N_vVel_mean              =   1.8109562645636E-02
(PID.TID 0000.0001) %MON obc_N_vVel_sd                =   3.9657629528299E-02
(PID.TID 0000.0001) %MON obc_N_vVel_Int               =   1.4895933755293E+08
(PID.TID 0000.0001) %MON obc_S_vVel_max               =   5.7851472271831E-02
(PID.TID 0000.0001) %MON obc_S_vVel_min               =  -8.7107496963578E-02
(PID.TID 0000.0001) %MON obc_S_vVel_mean              =   1.0141167972462E-02
(PID.TID 0000.0001) %MON obc_S_vVel_sd                =   1.1534279060958E-02
(PID.TID 0000.0001) %MON obc_S_vVel_Int               =   1.1286004049728E+08
(PID.TID 0000.0001) %MON obc_E_theta_max              =   2.5544838560027E+01
(PID.TID 0000.0001) %MON obc_E_theta_min              =   1.4632960371739E+00
(PID.TID 0000.0001) %MON obc_E_theta_mean             =   5.4563393310155E+00
(PID.TID 0000.0001) %MON obc_E_theta_sd               =   5.6195990621500E+00
(PID.TID 0000.0001) %MON obc_W_theta_max              =   1.5386830228718E+01
(PID.TID 0000.0001) %MON obc_W_theta_min              =   1.8895907760510E+00
(PID.TID 0000.0001) %MON obc_W_theta_mean             =   4.2052158085619E+00
(PID.TID 0000.0001) %MON obc_W_theta_sd               =   2.6439128384272E+00
(PID.TID 0000.0001) %MON obc_N_theta_max              =   1.6390772942977E+01
(PID.TID 0000.0001) %MON obc_N_theta_min              =   2.0878063917867E+00
(PID.TID 0000.0001) %MON obc_N_theta_mean             =   5.8650779479625E+00
(PID.TID 0000.0001) %MON obc_N_theta_sd               =   3.8421365553709E+00
(PID.TID 0000.0001) %MON obc_S_theta_max              =   2.3211274182239E+01
(PID.TID 0000.0001) %MON obc_S_theta_min              =   1.8976913399602E+00
(PID.TID 0000.0001) %MON obc_S_theta_mean             =   5.4651411372765E+00
(PID.TID 0000.0001) %MON obc_S_theta_sd               =   4.8645356146066E+00
(PID.TID 0000.0001) %MON obc_E_salt_max               =   3.7284809904906E+01
(PID.TID 0000.0001) %MON obc_E_salt_min               =   3.4844694366037E+01
(PID.TID 0000.0001) %MON obc_E_salt_mean              =   3.5160048207598E+01
(PID.TID 0000.0001) %MON obc_E_salt_sd                =   4.6599311733544E-01
(PID.TID 0000.0001) %MON obc_W_salt_max               =   3.5867257411747E+01
(PID.TID 0000.0001) %MON obc_W_salt_min               =   3.3295019572678E+01
(PID.TID 0000.0001) %MON obc_W_salt_mean              =   3.4957945987996E+01
(PID.TID 0000.0001) %MON obc_W_salt_sd                =   2.4692891357317E-01
(PID.TID 0000.0001) %MON obc_N_salt_max               =   3.5910867239595E+01
(PID.TID 0000.0001) %MON obc_N_salt_min               =   3.4917015014760E+01
(PID.TID 0000.0001) %MON obc_N_salt_mean              =   3.5230514638085E+01
(PID.TID 0000.0001) %MON obc_N_salt_sd                =   3.0056297679150E-01
(PID.TID 0000.0001) %MON obc_S_salt_max               =   3.7318339746237E+01
(PID.TID 0000.0001) %MON obc_S_salt_min               =   3.4884963781769E+01
(PID.TID 0000.0001) %MON obc_S_salt_mean              =   3.5182820159566E+01
(PID.TID 0000.0001) %MON obc_S_salt_sd                =   4.4106859466222E-01
(PID.TID 0000.0001) // =======================================================
(PID.TID 0000.0001) // End OBCS MONITOR field statistics
(PID.TID 0000.0001) // =======================================================
(PID.TID 0000.0001) // =======================================================
(PID.TID 0000.0001) // Begin MONITOR EXF statistics
(PID.TID 0000.0001) // =======================================================
(PID.TID 0000.0001) %MON exf_tsnumber                 =                     1
(PID.TID 0000.0001) %MON exf_time_sec                 =   2.4000000000000E+02
(PID.TID 0000.0001) %MON exf_ustress_max              =   5.3578114958594E-01
(PID.TID 0000.0001) %MON exf_ustress_min              =  -3.0831589484903E-01
(PID.TID 0000.0001) %MON exf_ustress_mean             =   7.2501601648277E-02
(PID.TID 0000.0001) %MON exf_ustress_sd               =   1.4197942817596E-01
(PID.TID 0000.0001) %MON exf_ustress_del2             =   2.8464794067438E-07
(PID.TID 0000.0001) %MON exf_vstress_max              =   5.9444268428289E-01
(PID.TID 0000.0001) %MON exf_vstress_min              =  -1.8297701112474E-01
(PID.TID 0000.0001) %MON exf_vstress_mean             =   9.9304068032627E-02
(PID.TID 0000.0001) %MON exf_vstress_sd               =   1.3700127080038E-01
(PID.TID 0000.0001) %MON exf_vstress_del2             =   2.4855990371607E-07
(PID.TID 0000.0001) %MON exf_hflux_max                =   1.0735940115714E+03
(PID.TID 0000.0001) %MON exf_hflux_min                =  -1.3746935614048E+02
(PID.TID 0000.0001) %MON exf_hflux_mean               =   3.2532622288064E+02
(PID.TID 0000.0001) %MON exf_hflux_sd                 =   2.1374512876263E+02
(PID.TID 0000.0001) %MON exf_hflux_del2               =   8.7193083647677E-02
(PID.TID 0000.0001) %MON exf_sflux_max                =   2.3008061021611E-07
(PID.TID 0000.0001) %MON exf_sflux_min                =  -9.7121270000515E-07
(PID.TID 0000.0001) %MON exf_sflux_mean               =   4.3294432095220E-08
(PID.TID 0000.0001) %MON exf_sflux_sd                 =   1.0531417237717E-07
(PID.TID 0000.0001) %MON exf_sflux_del2               =   2.3686195753729E-11
(PID.TID 0000.0001) %MON exf_uwind_max                =   1.6069069822577E+01
(PID.TID 0000.0001) %MON exf_uwind_min                =  -1.2922907218767E+01
(PID.TID 0000.0001) %MON exf_uwind_mean               =   3.0086248756308E+00
(PID.TID 0000.0001) %MON exf_uwind_sd                 =   6.7491655134701E+00
(PID.TID 0000.0001) %MON exf_uwind_del2               =   1.6403552536761E-03
(PID.TID 0000.0001) %MON exf_vwind_max                =   1.5060440436406E+01
(PID.TID 0000.0001) %MON exf_vwind_min                =  -1.0645367011422E+01
(PID.TID 0000.0001) %MON exf_vwind_mean               =   4.6681023262158E+00
(PID.TID 0000.0001) %MON exf_vwind_sd                 =   6.0066044907325E+00
(PID.TID 0000.0001) %MON exf_vwind_del2               =   1.6986599138942E-03
(PID.TID 0000.0001) %MON exf_wspeed_max               =   1.8497026846151E+01
(PID.TID 0000.0001) %MON exf_wspeed_min               =   6.0203903849189E-02
(PID.TID 0000.0001) %MON exf_wspeed_mean              =   9.9763630195568E+00
(PID.TID 0000.0001) %MON exf_wspeed_sd                =   3.5980156348476E+00
(PID.TID 0000.0001) %MON exf_wspeed_del2              =   2.3613330295730E-03
(PID.TID 0000.0001) %MON exf_atemp_max                =   2.9779320147125E+02
(PID.TID 0000.0001) %MON exf_atemp_min                =   2.7424282999764E+02
(PID.TID 0000.0001) %MON exf_atemp_mean               =   2.8987756561554E+02
(PID.TID 0000.0001) %MON exf_atemp_sd                 =   4.3318680809458E+00
(PID.TID 0000.0001) %MON exf_atemp_del2               =   3.7040484925823E-03
(PID.TID 0000.0001) %MON exf_aqh_max                  =   1.4674777987948E-02
(PID.TID 0000.0001) %MON exf_aqh_min                  =   3.0467757253354E-03
(PID.TID 0000.0001) %MON exf_aqh_mean                 =   9.5881449352768E-03
(PID.TID 0000.0001) %MON exf_aqh_sd                   =   2.2765794244146E-03
(PID.TID 0000.0001) %MON exf_aqh_del2                 =   2.1313191140464E-06
(PID.TID 0000.0001) %MON exf_lwflux_max               =   1.5843780123092E+02
(PID.TID 0000.0001) %MON exf_lwflux_min               =   1.6090884386204E+00
(PID.TID 0000.0001) %MON exf_lwflux_mean              =   7.2807826352759E+01
(PID.TID 0000.0001) %MON exf_lwflux_sd                =   2.7811854322775E+01
(PID.TID 0000.0001) %MON exf_lwflux_del2              =   1.7298574913715E-02
(PID.TID 0000.0001) %MON exf_evap_max                 =   2.5177294756088E-07
(PID.TID 0000.0001) %MON exf_evap_min                 =  -4.2936099123388E-08
(PID.TID 0000.0001) %MON exf_evap_mean                =   8.0136554708998E-08
(PID.TID 0000.0001) %MON exf_evap_sd                  =   5.6539587922122E-08
(PID.TID 0000.0001) %MON exf_evap_del2                =   2.1723434155840E-11
(PID.TID 0000.0001) %MON exf_precip_max               =   9.7121411578175E-07
(PID.TID 0000.0001) %MON exf_precip_min               =   0.0000000000000E+00
(PID.TID 0000.0001) %MON exf_precip_mean              =   3.5253642417343E-08
(PID.TID 0000.0001) %MON exf_precip_sd                =   7.8573989086579E-08
(PID.TID 0000.0001) %MON exf_precip_del2              =   1.7370044333973E-11
(PID.TID 0000.0001) %MON exf_swflux_max               =   0.0000000000000E+00
(PID.TID 0000.0001) %MON exf_swflux_min               =  -2.2673720099088E+01
(PID.TID 0000.0001) %MON exf_swflux_mean              =  -7.5516542488312E-01
(PID.TID 0000.0001) %MON exf_swflux_sd                =   2.3946033211762E+00
(PID.TID 0000.0001) %MON exf_swflux_del2              =   5.1798179892280E-04
(PID.TID 0000.0001) %MON exf_swdown_max               =   2.5193022332320E+01
(PID.TID 0000.0001) %MON exf_swdown_min               =   0.0000000000000E+00
(PID.TID 0000.0001) %MON exf_swdown_mean              =   8.3907269431458E-01
(PID.TID 0000.0001) %MON exf_swdown_sd                =   2.6606703568625E+00
(PID.TID 0000.0001) %MON exf_swdown_del2              =   5.7553533213645E-04
(PID.TID 0000.0001) %MON exf_lwdown_max               =   4.0186343619066E+02
(PID.TID 0000.0001) %MON exf_lwdown_min               =   2.4851490810012E+02
(PID.TID 0000.0001) %MON exf_lwdown_mean              =   3.4205271486326E+02
(PID.TID 0000.0001) %MON exf_lwdown_sd                =   2.7535958549633E+01
(PID.TID 0000.0001) %MON exf_lwdown_del2              =   7.4678533998637E-02
(PID.TID 0000.0001) %MON exf_apressure_max            =   1.0172322104258E+05
(PID.TID 0000.0001) %MON exf_apressure_min            =   9.5285047440998E+04
(PID.TID 0000.0001) %MON exf_apressure_mean           =   9.9377889643247E+04
(PID.TID 0000.0001) %MON exf_apressure_sd             =   1.4931016309773E+03
(PID.TID 0000.0001) %MON exf_apressure_del2           =   2.1742191957503E+01
(PID.TID 0000.0001) %MON exf_runoff_max               =   4.4374822325994E-08
(PID.TID 0000.0001) %MON exf_runoff_min               =   0.0000000000000E+00
(PID.TID 0000.0001) %MON exf_runoff_mean              =   1.5884801964352E-09
(PID.TID 0000.0001) %MON exf_runoff_sd                =   5.3901974500338E-09
(PID.TID 0000.0001) %MON exf_runoff_del2              =   1.2741192460478E-12
(PID.TID 0000.0001) // =======================================================
(PID.TID 0000.0001) // End MONITOR EXF statistics
(PID.TID 0000.0001) // =======================================================
 cg2d: Sum(rhs),rhsMax =   1.19495452882109E+02  3.54584411658882E-02
(PID.TID 0000.0001)      cg2d_init_res =   1.40021653780226E+01
(PID.TID 0000.0001)      cg2d_iters(min,last) =      -1     323
(PID.TID 0000.0001)      cg2d_last_res =   6.90143197618708E-12
(PID.TID 0000.0001) // =======================================================
(PID.TID 0000.0001) // Begin MONITOR dynamic field statistics
(PID.TID 0000.0001) // =======================================================
(PID.TID 0000.0001) %MON time_tsnumber                =                     2
(PID.TID 0000.0001) %MON time_secondsf                =   4.8000000000000E+02
(PID.TID 0000.0001) %MON dynstat_eta_max              =   8.6642866713494E-01
(PID.TID 0000.0001) %MON dynstat_eta_min              =  -1.5252792335154E+00
(PID.TID 0000.0001) %MON dynstat_eta_mean             =  -4.0636759591118E-03
(PID.TID 0000.0001) %MON dynstat_eta_sd               =   9.8395984443489E-02
(PID.TID 0000.0001) %MON dynstat_eta_del2             =   3.4836360867851E-06
(PID.TID 0000.0001) %MON dynstat_uvel_max             =   9.0758230169833E-01
(PID.TID 0000.0001) %MON dynstat_uvel_min             =  -1.9219878727694E+00
(PID.TID 0000.0001) %MON dynstat_uvel_mean            =   2.6943888300788E-03
(PID.TID 0000.0001) %MON dynstat_uvel_sd              =   5.0111161013235E-02
(PID.TID 0000.0001) %MON dynstat_uvel_del2            =   4.3066254999565E-07
(PID.TID 0000.0001) %MON dynstat_vvel_max             =   1.2806790727029E+00
(PID.TID 0000.0001) %MON dynstat_vvel_min             =  -7.0567640663635E-01
(PID.TID 0000.0001) %MON dynstat_vvel_mean            =   2.9113291266794E-03
(PID.TID 0000.0001) %MON dynstat_vvel_sd              =   5.0442188256335E-02
(PID.TID 0000.0001) %MON dynstat_vvel_del2            =   4.5914914498576E-07
(PID.TID 0000.0001) %MON dynstat_wvel_max             =   3.7089398039245E-02
(PID.TID 0000.0001) %MON dynstat_wvel_min             =  -3.2775118503700E-02
(PID.TID 0000.0001) %MON dynstat_wvel_mean            =  -4.3588035326753E-06
(PID.TID 0000.0001) %MON dynstat_wvel_sd              =   5.8568128868334E-04
(PID.TID 0000.0001) %MON dynstat_wvel_del2            =   9.0321549220682E-08
(PID.TID 0000.0001) %MON dynstat_theta_max            =   2.6140838329351E+01
(PID.TID 0000.0001) %MON dynstat_theta_min            =   1.4688638112833E+00
(PID.TID 0000.0001) %MON dynstat_theta_mean           =   5.5098610976824E+00
(PID.TID 0000.0001) %MON dynstat_theta_sd             =   4.7734699183339E+00
(PID.TID 0000.0001) %MON dynstat_theta_del2           =   4.0036677377363E-06
(PID.TID 0000.0001) %MON dynstat_salt_max             =   3.9182791263941E+01
(PID.TID 0000.0001) %MON dynstat_salt_min             =   3.3089852803081E+01
(PID.TID 0000.0001) %MON dynstat_salt_mean            =   3.5173371459777E+01
(PID.TID 0000.0001) %MON dynstat_salt_sd              =   3.7891428912150E-01
(PID.TID 0000.0001) %MON dynstat_salt_del2            =   4.9559861812132E-07
(PID.TID 0000.0001) %MON dynstat_sst_max              =   2.6135865695049E+01
(PID.TID 0000.0001) %MON dynstat_sst_min              =   4.0613375261670E+00
(PID.TID 0000.0001) %MON dynstat_sst_mean             =   1.9645342353802E+01
(PID.TID 0000.0001) %MON dynstat_sst_sd               =   3.6376926415357E+00
(PID.TID 0000.0001) %MON dynstat_sst_del2             =   1.9099248762621E-05
(PID.TID 0000.0001) %MON dynstat_sss_max              =   3.7335162457632E+01
(PID.TID 0000.0001) %MON dynstat_sss_min              =   3.3089852803081E+01
(PID.TID 0000.0001) %MON dynstat_sss_mean             =   3.5868109219335E+01
(PID.TID 0000.0001) %MON dynstat_sss_sd               =   4.8725168179015E-01
(PID.TID 0000.0001) %MON dynstat_sss_del2             =   5.0103201569909E-06
(PID.TID 0000.0001) %MON forcing_qnet_max             =   1.0899387443073E+03
(PID.TID 0000.0001) %MON forcing_qnet_min             =  -1.6574708575413E+02
(PID.TID 0000.0001) %MON forcing_qnet_mean            =   3.2979486145539E+02
(PID.TID 0000.0001) %MON forcing_qnet_sd              =   2.1950026588203E+02
(PID.TID 0000.0001) %MON forcing_qnet_del2            =   1.1971746326610E-03
(PID.TID 0000.0001) %MON forcing_qsw_max              =   0.0000000000000E+00
(PID.TID 0000.0001) %MON forcing_qsw_min              =  -2.2673720099088E+01
(PID.TID 0000.0001) %MON forcing_qsw_mean             =  -7.5516542488312E-01
(PID.TID 0000.0001) %MON forcing_qsw_sd               =   2.3946033211762E+00
(PID.TID 0000.0001) %MON forcing_qsw_del2             =   7.7115842456256E-06
(PID.TID 0000.0001) %MON forcing_empmr_max            =   2.3008061021611E-04
(PID.TID 0000.0001) %MON forcing_empmr_min            =  -9.7121270000515E-04
(PID.TID 0000.0001) %MON forcing_empmr_mean           =   4.3294432095220E-05
(PID.TID 0000.0001) %MON forcing_empmr_sd             =   1.0531417237717E-04
(PID.TID 0000.0001) %MON forcing_empmr_del2           =   8.3810477472914E-10
(PID.TID 0000.0001) %MON forcing_fu_max               =   5.3563151404945E-01
(PID.TID 0000.0001) %MON forcing_fu_min               =  -3.0827299623791E-01
(PID.TID 0000.0001) %MON forcing_fu_mean              =   7.2611974384481E-02
(PID.TID 0000.0001) %MON forcing_fu_sd                =   1.4199199817537E-01
(PID.TID 0000.0001) %MON forcing_fu_del2              =   2.6451438461229E-07
(PID.TID 0000.0001) %MON forcing_fv_max               =   5.9442019603915E-01
(PID.TID 0000.0001) %MON forcing_fv_min               =  -1.8297579854605E-01
(PID.TID 0000.0001) %MON forcing_fv_mean              =   9.9332296896100E-02
(PID.TID 0000.0001) %MON forcing_fv_sd                =   1.3701021948897E-01
(PID.TID 0000.0001) %MON forcing_fv_del2              =   2.2977842506893E-07
(PID.TID 0000.0001) %MON trAdv_CFL_u_max              =   1.2143772274947E-01
(PID.TID 0000.0001) %MON trAdv_CFL_v_max              =   7.7699775178901E-02
(PID.TID 0000.0001) %MON trAdv_CFL_w_max              =   5.2090530480749E-01
(PID.TID 0000.0001) %MON advcfl_uvel_max              =   1.2147417323196E-01
(PID.TID 0000.0001) %MON advcfl_vvel_max              =   7.7699776567560E-02
(PID.TID 0000.0001) %MON advcfl_wvel_max              =   5.2245101787813E-01
(PID.TID 0000.0001) %MON advcfl_W_hf_max              =   5.2400593162182E-01
(PID.TID 0000.0001) %MON pe_b_mean                    =  -8.2905736712935E-05
(PID.TID 0000.0001) %MON ke_max                       =   1.6883700833602E+00
(PID.TID 0000.0001) %MON ke_mean                      =   2.5170693385128E-03
(PID.TID 0000.0001) %MON ke_vol                       =   4.5818637829946E+16
(PID.TID 0000.0001) %MON vort_r_min                   =  -4.2980823755326E-04
(PID.TID 0000.0001) %MON vort_r_max                   =   5.9932553004203E-04
(PID.TID 0000.0001) %MON vort_a_mean                  =   8.2147630477706E-05
(PID.TID 0000.0001) %MON vort_a_sd                    =   1.0122415443841E-05
(PID.TID 0000.0001) %MON vort_p_mean                  =   8.4848853035214E-05
(PID.TID 0000.0001) %MON vort_p_sd                    =   3.4984840164476E-05
(PID.TID 0000.0001) %MON surfExpan_theta_mean         =   2.0091462255267E-05
(PID.TID 0000.0001) %MON surfExpan_salt_mean          =  -3.0932036178864E-04
(PID.TID 0000.0001) // =======================================================
(PID.TID 0000.0001) // End MONITOR dynamic field statistics
(PID.TID 0000.0001) // =======================================================
(PID.TID 0000.0001) // =======================================================
(PID.TID 0000.0001) // Begin OBCS MONITOR field statistics
(PID.TID 0000.0001) // =======================================================
(PID.TID 0000.0001) %MON obc_E_uVel_max               =   2.6285821772047E-01
(PID.TID 0000.0001) %MON obc_E_uVel_min               =  -1.9219878727694E+00
(PID.TID 0000.0001) %MON obc_E_uVel_mean              =   9.3449474659671E-04
(PID.TID 0000.0001) %MON obc_E_uVel_sd                =   4.3840264952207E-02
(PID.TID 0000.0001) %MON obc_E_uVel_Int               =   1.8048831503453E+07
(PID.TID 0000.0001) %MON obc_W_uVel_max               =   3.2224240947350E-01
(PID.TID 0000.0001) %MON obc_W_uVel_min               =  -6.9543695747488E-01
(PID.TID 0000.0001) %MON obc_W_uVel_mean              =  -6.4368853375611E-03
(PID.TID 0000.0001) %MON obc_W_uVel_sd                =   8.7314472981357E-02
(PID.TID 0000.0001) %MON obc_W_uVel_Int               =  -3.9198265154530E+07
(PID.TID 0000.0001) %MON obc_N_vVel_max               =   3.0072352159212E-01
(PID.TID 0000.0001) %MON obc_N_vVel_min               =  -1.0343314803245E-01
(PID.TID 0000.0001) %MON obc_N_vVel_mean              =   1.8394075696998E-02
(PID.TID 0000.0001) %MON obc_N_vVel_sd                =   3.9795827374913E-02
(PID.TID 0000.0001) %MON obc_N_vVel_Int               =   1.5129958598881E+08
(PID.TID 0000.0001) %MON obc_S_vVel_max               =   5.7050109378241E-02
(PID.TID 0000.0001) %MON obc_S_vVel_min               =  -8.7586952933349E-02
(PID.TID 0000.0001) %MON obc_S_vVel_mean              =   9.1250601072914E-03
(PID.TID 0000.0001) %MON obc_S_vVel_sd                =   1.1518394296798E-02
(PID.TID 0000.0001) %MON obc_S_vVel_Int               =   1.0155187805247E+08
(PID.TID 0000.0001) %MON obc_E_theta_max              =   2.5544735811248E+01
(PID.TID 0000.0001) %MON obc_E_theta_min              =   1.4632964334612E+00
(PID.TID 0000.0001) %MON obc_E_theta_mean             =   5.4563389929597E+00
(PID.TID 0000.0001) %MON obc_E_theta_sd               =   5.6195954483562E+00
(PID.TID 0000.0001) %MON obc_W_theta_max              =   1.5386710315106E+01
(PID.TID 0000.0001) %MON obc_W_theta_min              =   1.8895908251163E+00
(PID.TID 0000.0001) %MON obc_W_theta_mean             =   4.2052035880430E+00
(PID.TID 0000.0001) %MON obc_W_theta_sd               =   2.6438925920330E+00
(PID.TID 0000.0001) %MON obc_N_theta_max              =   1.6390684840790E+01
(PID.TID 0000.0001) %MON obc_N_theta_min              =   2.0878031166128E+00
(PID.TID 0000.0001) %MON obc_N_theta_mean             =   5.8650741443705E+00
(PID.TID 0000.0001) %MON obc_N_theta_sd               =   3.8421306633883E+00
(PID.TID 0000.0001) %MON obc_S_theta_max              =   2.3211190245148E+01
(PID.TID 0000.0001) %MON obc_S_theta_min              =   1.8976913292224E+00
(PID.TID 0000.0001) %MON obc_S_theta_mean             =   5.4651395218361E+00
(PID.TID 0000.0001) %MON obc_S_theta_sd               =   4.8645312015221E+00
(PID.TID 0000.0001) %MON obc_E_salt_max               =   3.7284797835388E+01
(PID.TID 0000.0001) %MON obc_E_salt_min               =   3.4844694418258E+01
(PID.TID 0000.0001) %MON obc_E_salt_mean              =   3.5160048277456E+01
(PID.TID 0000.0001) %MON obc_E_salt_sd                =   4.6599314689092E-01
(PID.TID 0000.0001) %MON obc_W_salt_max               =   3.5867257914803E+01
(PID.TID 0000.0001) %MON obc_W_salt_min               =   3.3295025075312E+01
(PID.TID 0000.0001) %MON obc_W_salt_mean              =   3.4957945462693E+01
(PID.TID 0000.0001) %MON obc_W_salt_sd                =   2.4692817870140E-01
(PID.TID 0000.0001) %MON obc_N_salt_max               =   3.5910866831232E+01
(PID.TID 0000.0001) %MON obc_N_salt_min               =   3.4917015000834E+01
(PID.TID 0000.0001) %MON obc_N_salt_mean              =   3.5230514511870E+01
(PID.TID 0000.0001) %MON obc_N_salt_sd                =   3.0056305549748E-01
(PID.TID 0000.0001) %MON obc_S_salt_max               =   3.7318332861853E+01
(PID.TID 0000.0001) %MON obc_S_salt_min               =   3.4884963777939E+01
(PID.TID 0000.0001) %MON obc_S_salt_mean              =   3.5182819841602E+01
(PID.TID 0000.0001) %MON obc_S_salt_sd                =   4.4106755765074E-01
(PID.TID 0000.0001) // =======================================================
(PID.TID 0000.0001) // End OBCS MONITOR field statistics
(PID.TID 0000.0001) // =======================================================
(PID.TID 0000.0001) // =======================================================
(PID.TID 0000.0001) // Begin MONITOR EXF statistics
(PID.TID 0000.0001) // =======================================================
(PID.TID 0000.0001) %MON exf_tsnumber                 =                     2
(PID.TID 0000.0001) %MON exf_time_sec                 =   4.8000000000000E+02
(PID.TID 0000.0001) %MON exf_ustress_max              =   5.3222052210589E-01
(PID.TID 0000.0001) %MON exf_ustress_min              =  -3.0936775972716E-01
(PID.TID 0000.0001) %MON exf_ustress_mean             =   7.2109864943790E-02
(PID.TID 0000.0001) %MON exf_ustress_sd               =   1.4158468007791E-01
(PID.TID 0000.0001) %MON exf_ustress_del2             =   2.8890268458684E-07
(PID.TID 0000.0001) %MON exf_vstress_max              =   5.9108943689613E-01
(PID.TID 0000.0001) %MON exf_vstress_min              =  -1.8192676165147E-01
(PID.TID 0000.0001) %MON exf_vstress_mean             =   9.8969457829010E-02
(PID.TID 0000.0001) %MON exf_vstress_sd               =   1.3656215945234E-01
(PID.TID 0000.0001) %MON exf_vstress_del2             =   2.5143146055892E-07
(PID.TID 0000.0001) %MON exf_hflux_max                =   1.0708363686497E+03
(PID.TID 0000.0001) %MON exf_hflux_min                =  -1.3645431682467E+02
(PID.TID 0000.0001) %MON exf_hflux_mean               =   3.2486404166173E+02
(PID.TID 0000.0001) %MON exf_hflux_sd                 =   2.1324248012732E+02
(PID.TID 0000.0001) %MON exf_hflux_del2               =   8.7028533343665E-02
(PID.TID 0000.0001) %MON exf_sflux_max                =   2.2933717172758E-07
(PID.TID 0000.0001) %MON exf_sflux_min                =  -9.8445758227292E-07
(PID.TID 0000.0001) %MON exf_sflux_mean               =   4.3057211592612E-08
(PID.TID 0000.0001) %MON exf_sflux_sd                 =   1.0565957374686E-07
(PID.TID 0000.0001) %MON exf_sflux_del2               =   2.3716977363138E-11
(PID.TID 0000.0001) %MON exf_uwind_max                =   1.6004236619605E+01
(PID.TID 0000.0001) %MON exf_uwind_min                =  -1.2950823318901E+01
(PID.TID 0000.0001) %MON exf_uwind_mean               =   2.9985028707409E+00
(PID.TID 0000.0001) %MON exf_uwind_sd                 =   6.7495994629805E+00
(PID.TID 0000.0001) %MON exf_uwind_del2               =   1.6394254836882E-03
(PID.TID 0000.0001) %MON exf_vwind_max                =   1.5032179330731E+01
(PID.TID 0000.0001) %MON exf_vwind_min                =  -1.0618949865558E+01
(PID.TID 0000.0001) %MON exf_vwind_mean               =   4.6602581588436E+00
(PID.TID 0000.0001) %MON exf_vwind_sd                 =   5.9973862170903E+00
(PID.TID 0000.0001) %MON exf_vwind_del2               =   1.6961892546378E-03
(PID.TID 0000.0001) %MON exf_wspeed_max               =   1.8467337138226E+01
(PID.TID 0000.0001) %MON exf_wspeed_min               =   2.7369340969091E-02
(PID.TID 0000.0001) %MON exf_wspeed_mean              =   9.9666591836194E+00
(PID.TID 0000.0001) %MON exf_wspeed_sd                =   3.5917216816028E+00
(PID.TID 0000.0001) %MON exf_wspeed_del2              =   2.3589103867206E-03
(PID.TID 0000.0001) %MON exf_atemp_max                =   2.9779274744266E+02
(PID.TID 0000.0001) %MON exf_atemp_min                =   2.7426283642106E+02
(PID.TID 0000.0001) %MON exf_atemp_mean               =   2.8987763912930E+02
(PID.TID 0000.0001) %MON exf_atemp_sd                 =   4.3283376571390E+00
(PID.TID 0000.0001) %MON exf_atemp_del2               =   3.7040165468096E-03
(PID.TID 0000.0001) %MON exf_aqh_max                  =   1.4696382649785E-02
(PID.TID 0000.0001) %MON exf_aqh_min                  =   3.0546884250581E-03
(PID.TID 0000.0001) %MON exf_aqh_mean                 =   9.5877617532377E-03
(PID.TID 0000.0001) %MON exf_aqh_sd                   =   2.2740573060631E-03
(PID.TID 0000.0001) %MON exf_aqh_del2                 =   2.1311737794028E-06
(PID.TID 0000.0001) %MON exf_lwflux_max               =   1.5822213906379E+02
(PID.TID 0000.0001) %MON exf_lwflux_min               =   1.4021250334495E+00
(PID.TID 0000.0001) %MON exf_lwflux_mean              =   7.2794749456826E+01
(PID.TID 0000.0001) %MON exf_lwflux_sd                =   2.7817346422430E+01
(PID.TID 0000.0001) %MON exf_lwflux_del2              =   1.7294905590228E-02
(PID.TID 0000.0001) %MON exf_evap_max                 =   2.5111079726394E-07
(PID.TID 0000.0001) %MON exf_evap_min                 =  -4.2711108513858E-08
(PID.TID 0000.0001) %MON exf_evap_mean                =   7.9994192431931E-08
(PID.TID 0000.0001) %MON exf_evap_sd                  =   5.6393919150968E-08
(PID.TID 0000.0001) %MON exf_evap_del2                =   2.1676288804811E-11
(PID.TID 0000.0001) %MON exf_precip_max               =   9.8432442534507E-07
(PID.TID 0000.0001) %MON exf_precip_min               =   0.0000000000000E+00
(PID.TID 0000.0001) %MON exf_precip_mean              =   3.5348500642884E-08
(PID.TID 0000.0001) %MON exf_precip_sd                =   7.9006904771177E-08
(PID.TID 0000.0001) %MON exf_precip_del2              =   1.7450701003022E-11
(PID.TID 0000.0001) %MON exf_swflux_max               =   0.0000000000000E+00
(PID.TID 0000.0001) %MON exf_swflux_min               =  -2.1619128466572E+01
(PID.TID 0000.0001) %MON exf_swflux_mean              =  -7.2004145163275E-01
(PID.TID 0000.0001) %MON exf_swflux_sd                =   2.2832264225169E+00
(PID.TID 0000.0001) %MON exf_swflux_del2              =   4.9388962222872E-04
(PID.TID 0000.0001) %MON exf_swdown_max               =   2.4021253851747E+01
(PID.TID 0000.0001) %MON exf_swdown_min               =   0.0000000000000E+00
(PID.TID 0000.0001) %MON exf_swdown_mean              =   8.0004605736972E-01
(PID.TID 0000.0001) %MON exf_swdown_sd                =   2.5369182472410E+00
(PID.TID 0000.0001) %MON exf_swdown_del2              =   5.4876624692080E-04
(PID.TID 0000.0001) %MON exf_lwdown_max               =   4.0196542992501E+02
(PID.TID 0000.0001) %MON exf_lwdown_min               =   2.4870413893278E+02
(PID.TID 0000.0001) %MON exf_lwdown_mean              =   3.4205369294432E+02
(PID.TID 0000.0001) %MON exf_lwdown_sd                =   2.7526656275898E+01
(PID.TID 0000.0001) %MON exf_lwdown_del2              =   7.4678945289118E-02
(PID.TID 0000.0001) %MON exf_apressure_max            =   1.0164198292326E+05
(PID.TID 0000.0001) %MON exf_apressure_min            =   9.5302488939777E+04
(PID.TID 0000.0001) %MON exf_apressure_mean           =   9.9331564214906E+04
(PID.TID 0000.0001) %MON exf_apressure_sd             =   1.4712085650169E+03
(PID.TID 0000.0001) %MON exf_apressure_del2           =   2.1732097557099E+01
(PID.TID 0000.0001) %MON exf_runoff_max               =   4.4374822325994E-08
(PID.TID 0000.0001) %MON exf_runoff_min               =   0.0000000000000E+00
(PID.TID 0000.0001) %MON exf_runoff_mean              =   1.5884801964352E-09
(PID.TID 0000.0001) %MON exf_runoff_sd                =   5.3901974500338E-09
(PID.TID 0000.0001) %MON exf_runoff_del2              =   1.2741192460478E-12
(PID.TID 0000.0001) // =======================================================
(PID.TID 0000.0001) // End MONITOR EXF statistics
(PID.TID 0000.0001) // =======================================================
 cg2d: Sum(rhs),rhsMax =   2.00362223658717E+02  4.42401228309836E-02
(PID.TID 0000.0001)      cg2d_init_res =   3.23195815856713E+00
(PID.TID 0000.0001)      cg2d_iters(min,last) =      -1     320
(PID.TID 0000.0001)      cg2d_last_res =   6.91837529633863E-12
(PID.TID 0000.0001) // =======================================================
(PID.TID 0000.0001) // Begin MONITOR dynamic field statistics
(PID.TID 0000.0001) // =======================================================
(PID.TID 0000.0001) %MON time_tsnumber                =                     3
(PID.TID 0000.0001) %MON time_secondsf                =   7.2000000000000E+02
(PID.TID 0000.0001) %MON dynstat_eta_max              =   9.4999517313221E-01
(PID.TID 0000.0001) %MON dynstat_eta_min              =  -1.5256061107080E+00
(PID.TID 0000.0001) %MON dynstat_eta_mean             =  -6.8137082354036E-03
(PID.TID 0000.0001) %MON dynstat_eta_sd               =   1.2720994568014E-01
(PID.TID 0000.0001) %MON dynstat_eta_del2             =   2.9685349610656E-06
(PID.TID 0000.0001) %MON dynstat_uvel_max             =   8.8359859478675E-01
(PID.TID 0000.0001) %MON dynstat_uvel_min             =  -1.9865951208543E+00
(PID.TID 0000.0001) %MON dynstat_uvel_mean            =   3.1775466979074E-03
(PID.TID 0000.0001) %MON dynstat_uvel_sd              =   5.0050714528095E-02
(PID.TID 0000.0001) %MON dynstat_uvel_del2            =   4.2682075637270E-07
(PID.TID 0000.0001) %MON dynstat_vvel_max             =   1.2873070137130E+00
(PID.TID 0000.0001) %MON dynstat_vvel_min             =  -9.4071271896504E-01
(PID.TID 0000.0001) %MON dynstat_vvel_mean            =   3.2130223376600E-03
(PID.TID 0000.0001) %MON dynstat_vvel_sd              =   5.0604526895863E-02
(PID.TID 0000.0001) %MON dynstat_vvel_del2            =   4.6040765663943E-07
(PID.TID 0000.0001) %MON dynstat_wvel_max             =   3.7273293426752E-02
(PID.TID 0000.0001) %MON dynstat_wvel_min             =  -3.2550708423179E-02
(PID.TID 0000.0001) %MON dynstat_wvel_mean            =  -5.5814131797965E-06
(PID.TID 0000.0001) %MON dynstat_wvel_sd              =   5.8999449257922E-04
(PID.TID 0000.0001) %MON dynstat_wvel_del2            =   8.9154630952204E-08
(PID.TID 0000.0001) %MON dynstat_theta_max            =   2.6140118701224E+01
(PID.TID 0000.0001) %MON dynstat_theta_min            =   1.4688639310160E+00
(PID.TID 0000.0001) %MON dynstat_theta_mean           =   5.5098526960472E+00
(PID.TID 0000.0001) %MON dynstat_theta_sd             =   4.7734382495529E+00
(PID.TID 0000.0001) %MON dynstat_theta_del2           =   4.0022032355537E-06
(PID.TID 0000.0001) %MON dynstat_salt_max             =   3.9181006901236E+01
(PID.TID 0000.0001) %MON dynstat_salt_min             =   3.3089992772539E+01
(PID.TID 0000.0001) %MON dynstat_salt_mean            =   3.5173370116367E+01
(PID.TID 0000.0001) %MON dynstat_salt_sd              =   3.7891297884837E-01
(PID.TID 0000.0001) %MON dynstat_salt_del2            =   4.9712714389360E-07
(PID.TID 0000.0001) %MON dynstat_sst_max              =   2.6133854825745E+01
(PID.TID 0000.0001) %MON dynstat_sst_min              =   4.0464190246530E+00
(PID.TID 0000.0001) %MON dynstat_sst_mean             =   1.9643558601674E+01
(PID.TID 0000.0001) %MON dynstat_sst_sd               =   3.6373444775552E+00
(PID.TID 0000.0001) %MON dynstat_sst_del2             =   1.9078294003696E-05
(PID.TID 0000.0001) %MON dynstat_sss_max              =   3.7335182777618E+01
(PID.TID 0000.0001) %MON dynstat_sss_min              =   3.3089992772539E+01
(PID.TID 0000.0001) %MON dynstat_sss_mean             =   3.5868173893086E+01
(PID.TID 0000.0001) %MON dynstat_sss_sd               =   4.8727955691043E-01
(PID.TID 0000.0001) %MON dynstat_sss_del2             =   4.9966352544957E-06
(PID.TID 0000.0001) %MON forcing_qnet_max             =   1.0871079354319E+03
(PID.TID 0000.0001) %MON forcing_qnet_min             =  -1.6753483486827E+02
(PID.TID 0000.0001) %MON forcing_qnet_mean            =   3.2931307440953E+02
(PID.TID 0000.0001) %MON forcing_qnet_sd              =   2.1900240911362E+02
(PID.TID 0000.0001) %MON forcing_qnet_del2            =   1.1923358620354E-03
(PID.TID 0000.0001) %MON forcing_qsw_max              =   0.0000000000000E+00
(PID.TID 0000.0001) %MON forcing_qsw_min              =  -2.1619128466572E+01
(PID.TID 0000.0001) %MON forcing_qsw_mean             =  -7.2004145163275E-01
(PID.TID 0000.0001) %MON forcing_qsw_sd               =   2.2832264225169E+00
(PID.TID 0000.0001) %MON forcing_qsw_del2             =   7.3529059086198E-06
(PID.TID 0000.0001) %MON forcing_empmr_max            =   2.2933717172758E-04
(PID.TID 0000.0001) %MON forcing_empmr_min            =  -9.8445758227292E-04
(PID.TID 0000.0001) %MON forcing_empmr_mean           =   4.3057211592612E-05
(PID.TID 0000.0001) %MON forcing_empmr_sd             =   1.0565957374686E-04
(PID.TID 0000.0001) %MON forcing_empmr_del2           =   8.4654170609948E-10
(PID.TID 0000.0001) %MON forcing_fu_max               =   5.3211359154007E-01
(PID.TID 0000.0001) %MON forcing_fu_min               =  -3.0935578166544E-01
(PID.TID 0000.0001) %MON forcing_fu_mean              =   7.2219619948131E-02
(PID.TID 0000.0001) %MON forcing_fu_sd                =   1.4159696119920E-01
(PID.TID 0000.0001) %MON forcing_fu_del2              =   2.6712062755271E-07
(PID.TID 0000.0001) %MON forcing_fv_max               =   5.9105865274424E-01
(PID.TID 0000.0001) %MON forcing_fv_min               =  -1.8192467226338E-01
(PID.TID 0000.0001) %MON forcing_fv_mean              =   9.8997446615441E-02
(PID.TID 0000.0001) %MON forcing_fv_sd                =   1.3657116425720E-01
(PID.TID 0000.0001) %MON forcing_fv_del2              =   2.3056829728972E-07
(PID.TID 0000.0001) %MON trAdv_CFL_u_max              =   1.2551982815279E-01
(PID.TID 0000.0001) %MON trAdv_CFL_v_max              =   7.8101897410266E-02
(PID.TID 0000.0001) %MON trAdv_CFL_w_max              =   5.0620300815999E-01
(PID.TID 0000.0001) %MON advcfl_uvel_max              =   1.2555750391115E-01
(PID.TID 0000.0001) %MON advcfl_vvel_max              =   7.8101898806112E-02
(PID.TID 0000.0001) %MON advcfl_wvel_max              =   5.0770509423761E-01
(PID.TID 0000.0001) %MON advcfl_W_hf_max              =   5.0921612130380E-01
(PID.TID 0000.0001) %MON pe_b_mean                    =  -1.3943376482952E-04
(PID.TID 0000.0001) %MON ke_max                       =   1.7529295055141E+00
(PID.TID 0000.0001) %MON ke_mean                      =   2.5245323808189E-03
(PID.TID 0000.0001) %MON ke_vol                       =   4.5818637829946E+16
(PID.TID 0000.0001) %MON vort_r_min                   =  -4.6730152686596E-04
(PID.TID 0000.0001) %MON vort_r_max                   =   6.0184222887509E-04
(PID.TID 0000.0001) %MON vort_a_mean                  =   8.2147629740914E-05
(PID.TID 0000.0001) %MON vort_a_sd                    =   1.0123629406376E-05
(PID.TID 0000.0001) %MON vort_p_mean                  =   8.4848852274195E-05
(PID.TID 0000.0001) %MON vort_p_sd                    =   3.4982337498053E-05
(PID.TID 0000.0001) %MON surfExpan_theta_mean         =  -1.4963353210984E-05
(PID.TID 0000.0001) %MON surfExpan_salt_mean          =  -3.8251718878506E-04
(PID.TID 0000.0001) // =======================================================
(PID.TID 0000.0001) // End MONITOR dynamic field statistics
(PID.TID 0000.0001) // =======================================================
(PID.TID 0000.0001) // =======================================================
(PID.TID 0000.0001) // Begin OBCS MONITOR field statistics
(PID.TID 0000.0001) // =======================================================
(PID.TID 0000.0001) %MON obc_E_uVel_max               =   2.6299292345618E-01
(PID.TID 0000.0001) %MON obc_E_uVel_min               =  -1.9865951208543E+00
(PID.TID 0000.0001) %MON obc_E_uVel_mean              =   1.4498483244682E-03
(PID.TID 0000.0001) %MON obc_E_uVel_sd                =   4.3917606550824E-02
(PID.TID 0000.0001) %MON obc_E_uVel_Int               =   2.8002370488642E+07
(PID.TID 0000.0001) %MON obc_W_uVel_max               =   3.2235862395922E-01
(PID.TID 0000.0001) %MON obc_W_uVel_min               =  -6.9536595617867E-01
(PID.TID 0000.0001) %MON obc_W_uVel_mean              =  -6.2652722685120E-03
(PID.TID 0000.0001) %MON obc_W_uVel_sd                =   8.7194796409167E-02
(PID.TID 0000.0001) %MON obc_W_uVel_Int               =  -3.8153204658374E+07
(PID.TID 0000.0001) %MON obc_N_vVel_max               =   3.0124318363165E-01
(PID.TID 0000.0001) %MON obc_N_vVel_min               =  -1.0300260580683E-01
(PID.TID 0000.0001) %MON obc_N_vVel_mean              =   1.8658496000889E-02
(PID.TID 0000.0001) %MON obc_N_vVel_sd                =   3.9927166647813E-02
(PID.TID 0000.0001) %MON obc_N_vVel_Int               =   1.5347456249564E+08
(PID.TID 0000.0001) %MON obc_S_vVel_max               =   5.6229875281839E-02
(PID.TID 0000.0001) %MON obc_S_vVel_min               =  -8.8065791619210E-02
(PID.TID 0000.0001) %MON obc_S_vVel_mean              =   8.0989739896276E-03
(PID.TID 0000.0001) %MON obc_S_vVel_sd                =   1.1500570370582E-02
(PID.TID 0000.0001) %MON obc_S_vVel_Int               =   9.0132668637173E+07
(PID.TID 0000.0001) %MON obc_E_theta_max              =   2.5544633062468E+01
(PID.TID 0000.0001) %MON obc_E_theta_min              =   1.4632968297484E+00
(PID.TID 0000.0001) %MON obc_E_theta_mean             =   5.4563386549040E+00
(PID.TID 0000.0001) %MON obc_E_theta_sd               =   5.6195918346039E+00
(PID.TID 0000.0001) %MON obc_W_theta_max              =   1.5386590401495E+01
(PID.TID 0000.0001) %MON obc_W_theta_min              =   1.8895908741817E+00
(PID.TID 0000.0001) %MON obc_W_theta_mean             =   4.2051913675240E+00
(PID.TID 0000.0001) %MON obc_W_theta_sd               =   2.6438723461214E+00
(PID.TID 0000.0001) %MON obc_N_theta_max              =   1.6390596738603E+01
(PID.TID 0000.0001) %MON obc_N_theta_min              =   2.0877998414389E+00
(PID.TID 0000.0001) %MON obc_N_theta_mean             =   5.8650703407785E+00
(PID.TID 0000.0001) %MON obc_N_theta_sd               =   3.8421247714785E+00
(PID.TID 0000.0001) %MON obc_S_theta_max              =   2.3211106308057E+01
(PID.TID 0000.0001) %MON obc_S_theta_min              =   1.8976913184845E+00
(PID.TID 0000.0001) %MON obc_S_theta_mean             =   5.4651379063958E+00
(PID.TID 0000.0001) %MON obc_S_theta_sd               =   4.8645267884618E+00
(PID.TID 0000.0001) %MON obc_E_salt_max               =   3.7284785765870E+01
(PID.TID 0000.0001) %MON obc_E_salt_min               =   3.4844694470478E+01
(PID.TID 0000.0001) %MON obc_E_salt_mean              =   3.5160048347315E+01
(PID.TID 0000.0001) %MON obc_E_salt_sd                =   4.6599317644801E-01
(PID.TID 0000.0001) %MON obc_W_salt_max               =   3.5867258417859E+01
(PID.TID 0000.0001) %MON obc_W_salt_min               =   3.3295030577945E+01
(PID.TID 0000.0001) %MON obc_W_salt_mean              =   3.4957944937390E+01
(PID.TID 0000.0001) %MON obc_W_salt_sd                =   2.4692744390379E-01
(PID.TID 0000.0001) %MON obc_N_salt_max               =   3.5910866422869E+01
(PID.TID 0000.0001) %MON obc_N_salt_min               =   3.4917014986909E+01
(PID.TID 0000.0001) %MON obc_N_salt_mean              =   3.5230514385655E+01
(PID.TID 0000.0001) %MON obc_N_salt_sd                =   3.0056313421852E-01
(PID.TID 0000.0001) %MON obc_S_salt_max               =   3.7318325977469E+01
(PID.TID 0000.0001) %MON obc_S_salt_min               =   3.4884963774110E+01
(PID.TID 0000.0001) %MON obc_S_salt_mean              =   3.5182819523638E+01
(PID.TID 0000.0001) %MON obc_S_salt_sd                =   4.4106652065871E-01
(PID.TID 0000.0001) // =======================================================
(PID.TID 0000.0001) // End OBCS MONITOR field statistics
(PID.TID 0000.0001) // =======================================================
(PID.TID 0000.0001) // =======================================================
(PID.TID 0000.0001) // Begin MONITOR EXF statistics
(PID.TID 0000.0001) // =======================================================
(PID.TID 0000.0001) %MON exf_tsnumber                 =                     3
(PID.TID 0000.0001) %MON exf_time_sec                 =   7.2000000000000E+02
(PID.TID 0000.0001) %MON exf_ustress_max              =   5.2871914030996E-01
(PID.TID 0000.0001) %MON exf_ustress_min              =  -3.1057401846982E-01
(PID.TID 0000.0001) %MON exf_ustress_mean             =   7.1744978638846E-02
(PID.TID 0000.0001) %MON exf_ustress_sd               =   1.4125371570366E-01
(PID.TID 0000.0001) %MON exf_ustress_del2             =   2.8808773787816E-07
(PID.TID 0000.0001) %MON exf_vstress_max              =   5.8804719268198E-01
(PID.TID 0000.0001) %MON exf_vstress_min              =  -1.8111262108963E-01
(PID.TID 0000.0001) %MON exf_vstress_mean             =   9.8667130141227E-02
(PID.TID 0000.0001) %MON exf_vstress_sd               =   1.3618456276794E-01
(PID.TID 0000.0001) %MON exf_vstress_del2             =   2.5079562230427E-07
(PID.TID 0000.0001) %MON exf_hflux_max                =   1.0686250352156E+03
(PID.TID 0000.0001) %MON exf_hflux_min                =  -1.3550630418334E+02
(PID.TID 0000.0001) %MON exf_hflux_mean               =   3.2446502540715E+02
(PID.TID 0000.0001) %MON exf_hflux_sd                 =   2.1280129271506E+02
(PID.TID 0000.0001) %MON exf_hflux_del2               =   8.6884772285387E-02
(PID.TID 0000.0001) %MON exf_sflux_max                =   2.2870295164293E-07
(PID.TID 0000.0001) %MON exf_sflux_min                =  -9.9768741785915E-07
(PID.TID 0000.0001) %MON exf_sflux_mean               =   4.2838057863494E-08
(PID.TID 0000.0001) %MON exf_sflux_sd                 =   1.0604183922864E-07
(PID.TID 0000.0001) %MON exf_sflux_del2               =   2.3756846855325E-11
(PID.TID 0000.0001) %MON exf_uwind_max                =   1.5943683683727E+01
(PID.TID 0000.0001) %MON exf_uwind_min                =  -1.2980741332602E+01
(PID.TID 0000.0001) %MON exf_uwind_mean               =   2.9887765114949E+00
(PID.TID 0000.0001) %MON exf_uwind_sd                 =   6.7508542453175E+00
(PID.TID 0000.0001) %MON exf_uwind_del2               =   1.6387105988688E-03
(PID.TID 0000.0001) %MON exf_vwind_max                =   1.5006406684261E+01
(PID.TID 0000.0001) %MON exf_vwind_min                =  -1.0594286898807E+01
(PID.TID 0000.0001) %MON exf_vwind_mean               =   4.6528898725618E+00
(PID.TID 0000.0001) %MON exf_vwind_sd                 =   5.9890711488703E+00
(PID.TID 0000.0001) %MON exf_vwind_del2               =   1.6939439787668E-03
(PID.TID 0000.0001) %MON exf_wspeed_max               =   1.8441318288923E+01
(PID.TID 0000.0001) %MON exf_wspeed_min               =   2.2505356777730E-02
(PID.TID 0000.0001) %MON exf_wspeed_mean              =   9.9581082931829E+00
(PID.TID 0000.0001) %MON exf_wspeed_sd                =   3.5862591499842E+00
(PID.TID 0000.0001) %MON exf_wspeed_del2              =   2.3568005326868E-03
(PID.TID 0000.0001) %MON exf_atemp_max                =   2.9779229341407E+02
(PID.TID 0000.0001) %MON exf_atemp_min                =   2.7427725437776E+02
(PID.TID 0000.0001) %MON exf_atemp_mean               =   2.8987771264306E+02
(PID.TID 0000.0001) %MON exf_atemp_sd                 =   4.3248406146766E+00
(PID.TID 0000.0001) %MON exf_atemp_del2               =   3.7039867819038E-03
(PID.TID 0000.0001) %MON exf_aqh_max                  =   1.4717987311623E-02
(PID.TID 0000.0001) %MON exf_aqh_min                  =   3.0626011247808E-03
(PID.TID 0000.0001) %MON exf_aqh_mean                 =   9.5873785711986E-03
(PID.TID 0000.0001) %MON exf_aqh_sd                   =   2.2715820207277E-03
(PID.TID 0000.0001) %MON exf_aqh_del2                 =   2.1310310920155E-06
(PID.TID 0000.0001) %MON exf_lwflux_max               =   1.5800823367767E+02
(PID.TID 0000.0001) %MON exf_lwflux_min               =   1.1951373984729E+00
(PID.TID 0000.0001) %MON exf_lwflux_mean              =   7.2783874583725E+01
(PID.TID 0000.0001) %MON exf_lwflux_sd                =   2.7826795775739E+01
(PID.TID 0000.0001) %MON exf_lwflux_del2              =   1.7292023583564E-02
(PID.TID 0000.0001) %MON exf_evap_max                 =   2.5058773252657E-07
(PID.TID 0000.0001) %MON exf_evap_min                 =  -4.2512621552614E-08
(PID.TID 0000.0001) %MON exf_evap_mean                =   7.9869896928354E-08
(PID.TID 0000.0001) %MON exf_evap_sd                  =   5.6264947496895E-08
(PID.TID 0000.0001) %MON exf_evap_del2                =   2.1634896817899E-11
(PID.TID 0000.0001) %MON exf_precip_max               =   9.9743473490840E-07
(PID.TID 0000.0001) %MON exf_precip_min               =   0.0000000000000E+00
(PID.TID 0000.0001) %MON exf_precip_mean              =   3.5443358868425E-08
(PID.TID 0000.0001) %MON exf_precip_sd                =   7.9474014934460E-08
(PID.TID 0000.0001) %MON exf_precip_del2              =   1.7537844884405E-11
(PID.TID 0000.0001) %MON exf_swflux_max               =   0.0000000000000E+00
(PID.TID 0000.0001) %MON exf_swflux_min               =  -2.0564536834056E+01
(PID.TID 0000.0001) %MON exf_swflux_mean              =  -6.8491747838237E-01
(PID.TID 0000.0001) %MON exf_swflux_sd                =   2.1718495238575E+00
(PID.TID 0000.0001) %MON exf_swflux_del2              =   4.6979744553463E-04
(PID.TID 0000.0001) %MON exf_swdown_max               =   2.2849485371174E+01
(PID.TID 0000.0001) %MON exf_swdown_min               =   0.0000000000000E+00
(PID.TID 0000.0001) %MON exf_swdown_mean              =   7.6101942042485E-01
(PID.TID 0000.0001) %MON exf_swdown_sd                =   2.4131661376194E+00
(PID.TID 0000.0001) %MON exf_swdown_del2              =   5.2199716170515E-04
(PID.TID 0000.0001) %MON exf_lwdown_max               =   4.0206742365937E+02
(PID.TID 0000.0001) %MON exf_lwdown_min               =   2.4875067316715E+02
(PID.TID 0000.0001) %MON exf_lwdown_mean              =   3.4205467102538E+02
(PID.TID 0000.0001) %MON exf_lwdown_sd                =   2.7520541741766E+01
(PID.TID 0000.0001) %MON exf_lwdown_del2              =   7.4679419140591E-02
(PID.TID 0000.0001) %MON exf_apressure_max            =   1.0156076657794E+05
(PID.TID 0000.0001) %MON exf_apressure_min            =   9.5319930438556E+04
(PID.TID 0000.0001) %MON exf_apressure_mean           =   9.9285238786565E+04
(PID.TID 0000.0001) %MON exf_apressure_sd             =   1.4496401657370E+03
(PID.TID 0000.0001) %MON exf_apressure_del2           =   2.1722005163471E+01
(PID.TID 0000.0001) %MON exf_runoff_max               =   4.4374822325994E-08
(PID.TID 0000.0001) %MON exf_runoff_min               =   0.0000000000000E+00
(PID.TID 0000.0001) %MON exf_runoff_mean              =   1.5884801964352E-09
(PID.TID 0000.0001) %MON exf_runoff_sd                =   5.3901974500338E-09
(PID.TID 0000.0001) %MON exf_runoff_del2              =   1.2741192460478E-12
(PID.TID 0000.0001) // =======================================================
(PID.TID 0000.0001) // End MONITOR EXF statistics
(PID.TID 0000.0001) // =======================================================
 cg2d: Sum(rhs),rhsMax =   2.95182478474823E+02  5.04898979356789E-02
(PID.TID 0000.0001)      cg2d_init_res =   2.16289320704840E+00
(PID.TID 0000.0001)      cg2d_iters(min,last) =      -1     318
(PID.TID 0000.0001)      cg2d_last_res =   6.82892082113460E-12
(PID.TID 0000.0001) // =======================================================
(PID.TID 0000.0001) // Begin MONITOR dynamic field statistics
(PID.TID 0000.0001) // =======================================================
(PID.TID 0000.0001) %MON time_tsnumber                =                     4
(PID.TID 0000.0001) %MON time_secondsf                =   9.6000000000000E+02
(PID.TID 0000.0001) %MON dynstat_eta_max              =   1.0122665743512E+00
(PID.TID 0000.0001) %MON dynstat_eta_min              =  -1.4890217957034E+00
(PID.TID 0000.0001) %MON dynstat_eta_mean             =  -1.0038255953660E-02
(PID.TID 0000.0001) %MON dynstat_eta_sd               =   1.5133482359910E-01
(PID.TID 0000.0001) %MON dynstat_eta_del2             =   2.7648981290527E-06
(PID.TID 0000.0001) %MON dynstat_uvel_max             =   8.8517954893121E-01
(PID.TID 0000.0001) %MON dynstat_uvel_min             =  -2.0508235385517E+00
(PID.TID 0000.0001) %MON dynstat_uvel_mean            =   3.6272838313394E-03
(PID.TID 0000.0001) %MON dynstat_uvel_sd              =   5.0034509065914E-02
(PID.TID 0000.0001) %MON dynstat_uvel_del2            =   4.2671395863628E-07
(PID.TID 0000.0001) %MON dynstat_vvel_max             =   1.2918779662706E+00
(PID.TID 0000.0001) %MON dynstat_vvel_min             =  -1.0198031154566E+00
(PID.TID 0000.0001) %MON dynstat_vvel_mean            =   3.4832284686625E-03
(PID.TID 0000.0001) %MON dynstat_vvel_sd              =   5.0728964844156E-02
(PID.TID 0000.0001) %MON dynstat_vvel_del2            =   4.6215642639694E-07
(PID.TID 0000.0001) %MON dynstat_wvel_max             =   3.7325432915349E-02
(PID.TID 0000.0001) %MON dynstat_wvel_min             =  -3.1702432914315E-02
(PID.TID 0000.0001) %MON dynstat_wvel_mean            =  -6.7971195907605E-06
(PID.TID 0000.0001) %MON dynstat_wvel_sd              =   5.8913917771628E-04
(PID.TID 0000.0001) %MON dynstat_wvel_del2            =   8.5585277191889E-08
(PID.TID 0000.0001) %MON dynstat_theta_max            =   2.6139420130092E+01
(PID.TID 0000.0001) %MON dynstat_theta_min            =   1.4688640594953E+00
(PID.TID 0000.0001) %MON dynstat_theta_mean           =   5.5098460639243E+00
(PID.TID 0000.0001) %MON dynstat_theta_sd             =   4.7734092319400E+00
(PID.TID 0000.0001) %MON dynstat_theta_del2           =   4.0041772908325E-06
(PID.TID 0000.0001) %MON dynstat_salt_max             =   3.9178910071271E+01
(PID.TID 0000.0001) %MON dynstat_salt_min             =   3.3090137542477E+01
(PID.TID 0000.0001) %MON dynstat_salt_mean            =   3.5173368981437E+01
(PID.TID 0000.0001) %MON dynstat_salt_sd              =   3.7891222182578E-01
(PID.TID 0000.0001) %MON dynstat_salt_del2            =   4.9971441813767E-07
(PID.TID 0000.0001) %MON dynstat_sst_max              =   2.6132057179404E+01
(PID.TID 0000.0001) %MON dynstat_sst_min              =   4.0315296685846E+00
(PID.TID 0000.0001) %MON dynstat_sst_mean             =   1.9642035806418E+01
(PID.TID 0000.0001) %MON dynstat_sst_sd               =   3.6370618580420E+00
(PID.TID 0000.0001) %MON dynstat_sst_del2             =   1.9077573508341E-05
(PID.TID 0000.0001) %MON dynstat_sss_max              =   3.7335206247136E+01
(PID.TID 0000.0001) %MON dynstat_sss_min              =   3.3090137542477E+01
(PID.TID 0000.0001) %MON dynstat_sss_mean             =   3.5868232174576E+01
(PID.TID 0000.0001) %MON dynstat_sss_sd               =   4.8730379977137E-01
(PID.TID 0000.0001) %MON dynstat_sss_del2             =   4.9845297013645E-06
(PID.TID 0000.0001) %MON forcing_qnet_max             =   1.0848344471829E+03
(PID.TID 0000.0001) %MON forcing_qnet_min             =  -1.6931796571604E+02
(PID.TID 0000.0001) %MON forcing_qnet_mean            =   3.2889613282501E+02
(PID.TID 0000.0001) %MON forcing_qnet_sd              =   2.1856739083202E+02
(PID.TID 0000.0001) %MON forcing_qnet_del2            =   1.1896384562396E-03
(PID.TID 0000.0001) %MON forcing_qsw_max              =   0.0000000000000E+00
(PID.TID 0000.0001) %MON forcing_qsw_min              =  -2.0564536834056E+01
(PID.TID 0000.0001) %MON forcing_qsw_mean             =  -6.8491747838237E-01
(PID.TID 0000.0001) %MON forcing_qsw_sd               =   2.1718495238575E+00
(PID.TID 0000.0001) %MON forcing_qsw_del2             =   6.9942275716139E-06
(PID.TID 0000.0001) %MON forcing_empmr_max            =   2.2870295164293E-04
(PID.TID 0000.0001) %MON forcing_empmr_min            =  -9.9768741785915E-04
(PID.TID 0000.0001) %MON forcing_empmr_mean           =   4.2838057863494E-05
(PID.TID 0000.0001) %MON forcing_empmr_sd             =   1.0604183922864E-04
(PID.TID 0000.0001) %MON forcing_empmr_del2           =   8.5576259747107E-10
(PID.TID 0000.0001) %MON forcing_fu_max               =   5.2865521441385E-01
(PID.TID 0000.0001) %MON forcing_fu_min               =  -3.1055465293897E-01
(PID.TID 0000.0001) %MON forcing_fu_mean              =   7.1854136671887E-02
(PID.TID 0000.0001) %MON forcing_fu_sd                =   1.4126569965481E-01
(PID.TID 0000.0001) %MON forcing_fu_del2              =   2.6733797536934E-07
(PID.TID 0000.0001) %MON forcing_fv_max               =   5.8801674468719E-01
(PID.TID 0000.0001) %MON forcing_fv_min               =  -1.8111014828006E-01
(PID.TID 0000.0001) %MON forcing_fv_mean              =   9.8694873867543E-02
(PID.TID 0000.0001) %MON forcing_fv_sd                =   1.3619360958284E-01
(PID.TID 0000.0001) %MON forcing_fv_del2              =   2.2942822516901E-07
(PID.TID 0000.0001) %MON trAdv_CFL_u_max              =   1.2957799776535E-01
(PID.TID 0000.0001) %MON trAdv_CFL_v_max              =   7.8379220584866E-02
(PID.TID 0000.0001) %MON trAdv_CFL_w_max              =   4.8943377301049E-01
(PID.TID 0000.0001) %MON advcfl_uvel_max              =   1.2961689161506E-01
(PID.TID 0000.0001) %MON advcfl_vvel_max              =   7.8379221985668E-02
(PID.TID 0000.0001) %MON advcfl_wvel_max              =   4.9088609874643E-01
(PID.TID 0000.0001) %MON advcfl_W_hf_max              =   4.9234706927841E-01
(PID.TID 0000.0001) %MON pe_b_mean                    =  -2.0695065262672E-04
(PID.TID 0000.0001) %MON ke_max                       =   1.8773534776202E+00
(PID.TID 0000.0001) %MON ke_mean                      =   2.5324058318677E-03
(PID.TID 0000.0001) %MON ke_vol                       =   4.5818637829946E+16
(PID.TID 0000.0001) %MON vort_r_min                   =  -4.8723161231445E-04
(PID.TID 0000.0001) %MON vort_r_max                   =   5.7475051101314E-04
(PID.TID 0000.0001) %MON vort_a_mean                  =   8.2147628992029E-05
(PID.TID 0000.0001) %MON vort_a_sd                    =   1.0125237145791E-05
(PID.TID 0000.0001) %MON vort_p_mean                  =   8.4848851500685E-05
(PID.TID 0000.0001) %MON vort_p_sd                    =   3.4980460258762E-05
(PID.TID 0000.0001) %MON surfExpan_theta_mean         =  -5.5690632371392E-05
(PID.TID 0000.0001) %MON surfExpan_salt_mean          =  -4.5567041907260E-04
(PID.TID 0000.0001) // =======================================================
(PID.TID 0000.0001) // End MONITOR dynamic field statistics
(PID.TID 0000.0001) // =======================================================
(PID.TID 0000.0001) // =======================================================
(PID.TID 0000.0001) // Begin OBCS MONITOR field statistics
(PID.TID 0000.0001) // =======================================================
(PID.TID 0000.0001) %MON obc_E_uVel_max               =   2.6312092274101E-01
(PID.TID 0000.0001) %MON obc_E_uVel_min               =  -2.0508235385517E+00
(PID.TID 0000.0001) %MON obc_E_uVel_mean              =   1.9625786094025E-03
(PID.TID 0000.0001) %MON obc_E_uVel_sd                =   4.3998852567730E-02
(PID.TID 0000.0001) %MON obc_E_uVel_Int               =   3.7905243194132E+07
(PID.TID 0000.0001) %MON obc_W_uVel_max               =   3.2249830249386E-01
(PID.TID 0000.0001) %MON obc_W_uVel_min               =  -6.9528294482211E-01
(PID.TID 0000.0001) %MON obc_W_uVel_mean              =  -6.0876430130846E-03
(PID.TID 0000.0001) %MON obc_W_uVel_sd                =   8.7074537625573E-02
(PID.TID 0000.0001) %MON obc_W_uVel_Int               =  -3.7071507799054E+07
(PID.TID 0000.0001) %MON obc_N_vVel_max               =   3.0171528156779E-01
(PID.TID 0000.0001) %MON obc_N_vVel_min               =  -1.0259089792463E-01
(PID.TID 0000.0001) %MON obc_N_vVel_mean              =   1.8902505943174E-02
(PID.TID 0000.0001) %MON obc_N_vVel_sd                =   4.0051257229696E-02
(PID.TID 0000.0001) %MON obc_N_vVel_Int               =   1.5548165455360E+08
(PID.TID 0000.0001) %MON obc_S_vVel_max               =   5.5391741182866E-02
(PID.TID 0000.0001) %MON obc_S_vVel_min               =  -8.8543438189691E-02
(PID.TID 0000.0001) %MON obc_S_vVel_mean              =   7.0641550014919E-03
(PID.TID 0000.0001) %MON obc_S_vVel_sd                =   1.1480893232013E-02
(PID.TID 0000.0001) %MON obc_S_vVel_Int               =   7.8616271982912E+07
(PID.TID 0000.0001) %MON obc_E_theta_max              =   2.5544530313689E+01
(PID.TID 0000.0001) %MON obc_E_theta_min              =   1.4632972260357E+00
(PID.TID 0000.0001) %MON obc_E_theta_mean             =   5.4563383168482E+00
(PID.TID 0000.0001) %MON obc_E_theta_sd               =   5.6195882208931E+00
(PID.TID 0000.0001) %MON obc_W_theta_max              =   1.5386470487883E+01
(PID.TID 0000.0001) %MON obc_W_theta_min              =   1.8895909232471E+00
(PID.TID 0000.0001) %MON obc_W_theta_mean             =   4.2051791470051E+00
(PID.TID 0000.0001) %MON obc_W_theta_sd               =   2.6438521006924E+00
(PID.TID 0000.0001) %MON obc_N_theta_max              =   1.6390508636415E+01
(PID.TID 0000.0001) %MON obc_N_theta_min              =   2.0877965662650E+00
(PID.TID 0000.0001) %MON obc_N_theta_mean             =   5.8650665371866E+00
(PID.TID 0000.0001) %MON obc_N_theta_sd               =   3.8421188796415E+00
(PID.TID 0000.0001) %MON obc_S_theta_max              =   2.3211022370965E+01
(PID.TID 0000.0001) %MON obc_S_theta_min              =   1.8976913077467E+00
(PID.TID 0000.0001) %MON obc_S_theta_mean             =   5.4651362909555E+00
(PID.TID 0000.0001) %MON obc_S_theta_sd               =   4.8645223754256E+00
(PID.TID 0000.0001) %MON obc_E_salt_max               =   3.7284773696353E+01
(PID.TID 0000.0001) %MON obc_E_salt_min               =   3.4844694522698E+01
(PID.TID 0000.0001) %MON obc_E_salt_mean              =   3.5160048417173E+01
(PID.TID 0000.0001) %MON obc_E_salt_sd                =   4.6599320601514E-01
(PID.TID 0000.0001) %MON obc_W_salt_max               =   3.5867258920915E+01
(PID.TID 0000.0001) %MON obc_W_salt_min               =   3.3295036080578E+01
(PID.TID 0000.0001) %MON obc_W_salt_mean              =   3.4957944412087E+01
(PID.TID 0000.0001) %MON obc_W_salt_sd                =   2.4692670917984E-01
(PID.TID 0000.0001) %MON obc_N_salt_max               =   3.5910866014505E+01
(PID.TID 0000.0001) %MON obc_N_salt_min               =   3.4917014972984E+01
(PID.TID 0000.0001) %MON obc_N_salt_mean              =   3.5230514259441E+01
(PID.TID 0000.0001) %MON obc_N_salt_sd                =   3.0056321296559E-01
(PID.TID 0000.0001) %MON obc_S_salt_max               =   3.7318319093085E+01
(PID.TID 0000.0001) %MON obc_S_salt_min               =   3.4884963770280E+01
(PID.TID 0000.0001) %MON obc_S_salt_mean              =   3.5182819205673E+01
(PID.TID 0000.0001) %MON obc_S_salt_sd                =   4.4106548367833E-01
(PID.TID 0000.0001) // =======================================================
(PID.TID 0000.0001) // End OBCS MONITOR field statistics
(PID.TID 0000.0001) // =======================================================
(PID.TID 0000.0001) // =======================================================
(PID.TID 0000.0001) // Begin MONITOR EXF statistics
(PID.TID 0000.0001) // =======================================================
(PID.TID 0000.0001) %MON exf_tsnumber                 =                     4
(PID.TID 0000.0001) %MON exf_time_sec                 =   9.6000000000000E+02
(PID.TID 0000.0001) %MON exf_ustress_max              =   5.2532294835821E-01
(PID.TID 0000.0001) %MON exf_ustress_min              =  -3.1197171356594E-01
(PID.TID 0000.0001) %MON exf_ustress_mean             =   7.1399088475034E-02
(PID.TID 0000.0001) %MON exf_ustress_sd               =   1.4097238076076E-01
(PID.TID 0000.0001) %MON exf_ustress_del2             =   2.8774002780516E-07
(PID.TID 0000.0001) %MON exf_vstress_max              =   5.8525794108195E-01
(PID.TID 0000.0001) %MON exf_vstress_min              =  -1.8040559757189E-01
(PID.TID 0000.0001) %MON exf_vstress_mean             =   9.8387624116105E-02
(PID.TID 0000.0001) %MON exf_vstress_sd               =   1.3585336855101E-01
(PID.TID 0000.0001) %MON exf_vstress_del2             =   2.5016908215810E-07
(PID.TID 0000.0001) %MON exf_hflux_max                =   1.0667602253840E+03
(PID.TID 0000.0001) %MON exf_hflux_min                =  -1.3460236442632E+02
(PID.TID 0000.0001) %MON exf_hflux_mean               =   3.2411041440400E+02
(PID.TID 0000.0001) %MON exf_hflux_sd                 =   2.1240243669017E+02
(PID.TID 0000.0001) %MON exf_hflux_del2               =   8.6755722471819E-02
(PID.TID 0000.0001) %MON exf_sflux_max                =   2.2814388261634E-07
(PID.TID 0000.0001) %MON exf_sflux_min                =  -1.0109048525995E-06
(PID.TID 0000.0001) %MON exf_sflux_mean               =   4.2631666781566E-08
(PID.TID 0000.0001) %MON exf_sflux_sd                 =   1.0645750896482E-07
(PID.TID 0000.0001) %MON exf_sflux_del2               =   2.3804553959959E-11
(PID.TID 0000.0001) %MON exf_uwind_max                =   1.5885230995214E+01
(PID.TID 0000.0001) %MON exf_uwind_min                =  -1.3013331298286E+01
(PID.TID 0000.0001) %MON exf_uwind_mean               =   2.9793304582028E+00
(PID.TID 0000.0001) %MON exf_uwind_sd                 =   6.7527554447911E+00
(PID.TID 0000.0001) %MON exf_uwind_del2               =   1.6381668034977E-03
(PID.TID 0000.0001) %MON exf_vwind_max                =   1.4981407913110E+01
(PID.TID 0000.0001) %MON exf_vwind_min                =  -1.0571111693052E+01
(PID.TID 0000.0001) %MON exf_vwind_mean               =   4.6458417937943E+00
(PID.TID 0000.0001) %MON exf_vwind_sd                 =   5.9814709035574E+00
(PID.TID 0000.0001) %MON exf_vwind_del2               =   1.6918645690851E-03
(PID.TID 0000.0001) %MON exf_wspeed_max               =   1.8418508153736E+01
(PID.TID 0000.0001) %MON exf_wspeed_min               =   6.3090680307212E-02
(PID.TID 0000.0001) %MON exf_wspeed_mean              =   9.9504451500192E+00
(PID.TID 0000.0001) %MON exf_wspeed_sd                =   3.5814239536614E+00
(PID.TID 0000.0001) %MON exf_wspeed_del2              =   2.3549291964320E-03
(PID.TID 0000.0001) %MON exf_atemp_max                =   2.9779183938548E+02
(PID.TID 0000.0001) %MON exf_atemp_min                =   2.7428838153091E+02
(PID.TID 0000.0001) %MON exf_atemp_mean               =   2.8987778615683E+02
(PID.TID 0000.0001) %MON exf_atemp_sd                 =   4.3213770345995E+00
(PID.TID 0000.0001) %MON exf_atemp_del2               =   3.7039591979174E-03
(PID.TID 0000.0001) %MON exf_aqh_max                  =   1.4739591973461E-02
(PID.TID 0000.0001) %MON exf_aqh_min                  =   3.0705138245035E-03
(PID.TID 0000.0001) %MON exf_aqh_mean                 =   9.5869953891595E-03
(PID.TID 0000.0001) %MON exf_aqh_sd                   =   2.2691537216705E-03
(PID.TID 0000.0001) %MON exf_aqh_del2                 =   2.1308910524166E-06
(PID.TID 0000.0001) %MON exf_lwflux_max               =   1.5779521478097E+02
(PID.TID 0000.0001) %MON exf_lwflux_min               =   9.8813045750688E-01
(PID.TID 0000.0001) %MON exf_lwflux_mean              =   7.2774454964375E+01
(PID.TID 0000.0001) %MON exf_lwflux_sd                =   2.7839809901957E+01
(PID.TID 0000.0001) %MON exf_lwflux_del2              =   1.7289747563261E-02
(PID.TID 0000.0001) %MON exf_evap_max                 =   2.5015288155433E-07
(PID.TID 0000.0001) %MON exf_evap_min                 =  -4.2338517083141E-08
(PID.TID 0000.0001) %MON exf_evap_mean                =   7.9758364071967E-08
(PID.TID 0000.0001) %MON exf_evap_sd                  =   5.6147453068639E-08
(PID.TID 0000.0001) %MON exf_evap_del2                =   2.1597547799614E-11
(PID.TID 0000.0001) %MON exf_precip_max               =   1.0105450444717E-06
(PID.TID 0000.0001) %MON exf_precip_min               =   0.0000000000000E+00
(PID.TID 0000.0001) %MON exf_precip_mean              =   3.5538217093966E-08
(PID.TID 0000.0001) %MON exf_precip_sd                =   7.9974720417268E-08
(PID.TID 0000.0001) %MON exf_precip_del2              =   1.7631379788377E-11
(PID.TID 0000.0001) %MON exf_swflux_max               =   0.0000000000000E+00
(PID.TID 0000.0001) %MON exf_swflux_min               =  -1.9509945201541E+01
(PID.TID 0000.0001) %MON exf_swflux_mean              =  -6.4979350513199E-01
(PID.TID 0000.0001) %MON exf_swflux_sd                =   2.0604726251981E+00
(PID.TID 0000.0001) %MON exf_swflux_del2              =   4.4570526884055E-04
(PID.TID 0000.0001) %MON exf_swdown_max               =   2.1677716890601E+01
(PID.TID 0000.0001) %MON exf_swdown_min               =   0.0000000000000E+00
(PID.TID 0000.0001) %MON exf_swdown_mean              =   7.2199278347999E-01
(PID.TID 0000.0001) %MON exf_swdown_sd                =   2.2894140279979E+00
(PID.TID 0000.0001) %MON exf_swdown_del2              =   4.9522807648950E-04
(PID.TID 0000.0001) %MON exf_lwdown_max               =   4.0216941739373E+02
(PID.TID 0000.0001) %MON exf_lwdown_min               =   2.4879720740152E+02
(PID.TID 0000.0001) %MON exf_lwdown_mean              =   3.4205564910644E+02
(PID.TID 0000.0001) %MON exf_lwdown_sd                =   2.7517617072226E+01
(PID.TID 0000.0001) %MON exf_lwdown_del2              =   7.4679955551866E-02
(PID.TID 0000.0001) %MON exf_apressure_max            =   1.0148019324738E+05
(PID.TID 0000.0001) %MON exf_apressure_min            =   9.5337371937335E+04
(PID.TID 0000.0001) %MON exf_apressure_mean           =   9.9238913358224E+04
(PID.TID 0000.0001) %MON exf_apressure_sd             =   1.4284111401988E+03
(PID.TID 0000.0001) %MON exf_apressure_del2           =   2.1711914779418E+01
(PID.TID 0000.0001) %MON exf_runoff_max               =   4.4374822325994E-08
(PID.TID 0000.0001) %MON exf_runoff_min               =   0.0000000000000E+00
(PID.TID 0000.0001) %MON exf_runoff_mean              =   1.5884801964352E-09
(PID.TID 0000.0001) %MON exf_runoff_sd                =   5.3901974500338E-09
(PID.TID 0000.0001) %MON exf_runoff_del2              =   1.2741192460478E-12
(PID.TID 0000.0001) // =======================================================
(PID.TID 0000.0001) // End MONITOR EXF statistics
(PID.TID 0000.0001) // =======================================================
 cg2d: Sum(rhs),rhsMax =   4.03840633071101E+02  5.53219922316467E-02
(PID.TID 0000.0001)      cg2d_init_res =   1.84785469347452E+00
(PID.TID 0000.0001)      cg2d_iters(min,last) =      -1     317
(PID.TID 0000.0001)      cg2d_last_res =   6.58510474772880E-12
(PID.TID 0000.0001) // =======================================================
(PID.TID 0000.0001) // Begin MONITOR dynamic field statistics
(PID.TID 0000.0001) // =======================================================
(PID.TID 0000.0001) %MON time_tsnumber                =                     5
(PID.TID 0000.0001) %MON time_secondsf                =   1.2000000000000E+03
(PID.TID 0000.0001) %MON dynstat_eta_max              =   1.0332458051258E+00
(PID.TID 0000.0001) %MON dynstat_eta_min              =  -1.4199659218057E+00
(PID.TID 0000.0001) %MON dynstat_eta_mean             =  -1.3733388445689E-02
(PID.TID 0000.0001) %MON dynstat_eta_sd               =   1.7105755267385E-01
(PID.TID 0000.0001) %MON dynstat_eta_del2             =   2.5171482291842E-06
(PID.TID 0000.0001) %MON dynstat_uvel_max             =   8.8648538695770E-01
(PID.TID 0000.0001) %MON dynstat_uvel_min             =  -2.1146570329188E+00
(PID.TID 0000.0001) %MON dynstat_uvel_mean            =   4.0458411132488E-03
(PID.TID 0000.0001) %MON dynstat_uvel_sd              =   5.0058993015692E-02
(PID.TID 0000.0001) %MON dynstat_uvel_del2            =   4.2985018092917E-07
(PID.TID 0000.0001) %MON dynstat_vvel_max             =   1.2949687685946E+00
(PID.TID 0000.0001) %MON dynstat_vvel_min             =  -9.8063911562977E-01
(PID.TID 0000.0001) %MON dynstat_vvel_mean            =   3.7195404874587E-03
(PID.TID 0000.0001) %MON dynstat_vvel_sd              =   5.0817143043566E-02
(PID.TID 0000.0001) %MON dynstat_vvel_del2            =   4.6526066613381E-07
(PID.TID 0000.0001) %MON dynstat_wvel_max             =   3.7096319373871E-02
(PID.TID 0000.0001) %MON dynstat_wvel_min             =  -3.1014683673863E-02
(PID.TID 0000.0001) %MON dynstat_wvel_mean            =  -8.0044556306433E-06
(PID.TID 0000.0001) %MON dynstat_wvel_sd              =   5.8764936234841E-04
(PID.TID 0000.0001) %MON dynstat_wvel_del2            =   8.0879736689270E-08
(PID.TID 0000.0001) %MON dynstat_theta_max            =   2.6138683059223E+01
(PID.TID 0000.0001) %MON dynstat_theta_min            =   1.4688641962912E+00
(PID.TID 0000.0001) %MON dynstat_theta_mean           =   5.5098412659253E+00
(PID.TID 0000.0001) %MON dynstat_theta_sd             =   4.7733830055956E+00
(PID.TID 0000.0001) %MON dynstat_theta_del2           =   4.0080098703164E-06
(PID.TID 0000.0001) %MON dynstat_salt_max             =   3.9176489899682E+01
(PID.TID 0000.0001) %MON dynstat_salt_min             =   3.3090283800273E+01
(PID.TID 0000.0001) %MON dynstat_salt_mean            =   3.5173368046423E+01
(PID.TID 0000.0001) %MON dynstat_salt_sd              =   3.7891196909647E-01
(PID.TID 0000.0001) %MON dynstat_salt_del2            =   5.0301906654444E-07
(PID.TID 0000.0001) %MON dynstat_sst_max              =   2.6130406351968E+01
(PID.TID 0000.0001) %MON dynstat_sst_min              =   4.0165880854371E+00
(PID.TID 0000.0001) %MON dynstat_sst_mean             =   1.9640699137655E+01
(PID.TID 0000.0001) %MON dynstat_sst_sd               =   3.6368248294327E+00
(PID.TID 0000.0001) %MON dynstat_sst_del2             =   1.9086830564062E-05
(PID.TID 0000.0001) %MON dynstat_sss_max              =   3.7335233099729E+01
(PID.TID 0000.0001) %MON dynstat_sss_min              =   3.3090283800273E+01
(PID.TID 0000.0001) %MON dynstat_sss_mean             =   3.5868285213463E+01
(PID.TID 0000.0001) %MON dynstat_sss_sd               =   4.8732558127668E-01
(PID.TID 0000.0001) %MON dynstat_sss_del2             =   4.9735712435622E-06
(PID.TID 0000.0001) %MON forcing_qnet_max             =   1.0829144442506E+03
(PID.TID 0000.0001) %MON forcing_qnet_min             =  -1.7109904951008E+02
(PID.TID 0000.0001) %MON forcing_qnet_mean            =   3.2852477315171E+02
(PID.TID 0000.0001) %MON forcing_qnet_sd              =   2.1817568413022E+02
(PID.TID 0000.0001) %MON forcing_qnet_del2            =   1.1877198882690E-03
(PID.TID 0000.0001) %MON forcing_qsw_max              =   0.0000000000000E+00
(PID.TID 0000.0001) %MON forcing_qsw_min              =  -1.9509945201541E+01
(PID.TID 0000.0001) %MON forcing_qsw_mean             =  -6.4979350513199E-01
(PID.TID 0000.0001) %MON forcing_qsw_sd               =   2.0604726251981E+00
(PID.TID 0000.0001) %MON forcing_qsw_del2             =   6.6355492346081E-06
(PID.TID 0000.0001) %MON forcing_empmr_max            =   2.2814388261634E-04
(PID.TID 0000.0001) %MON forcing_empmr_min            =  -1.0109048525995E-03
(PID.TID 0000.0001) %MON forcing_empmr_mean           =   4.2631666781566E-05
(PID.TID 0000.0001) %MON forcing_empmr_sd             =   1.0645750896482E-04
(PID.TID 0000.0001) %MON forcing_empmr_del2           =   8.6575632793371E-10
(PID.TID 0000.0001) %MON forcing_fu_max               =   5.2530734837319E-01
(PID.TID 0000.0001) %MON forcing_fu_min               =  -3.1193420492319E-01
(PID.TID 0000.0001) %MON forcing_fu_mean              =   7.1507662208826E-02
(PID.TID 0000.0001) %MON forcing_fu_sd                =   1.4098407629577E-01
(PID.TID 0000.0001) %MON forcing_fu_del2              =   2.6727723297563E-07
(PID.TID 0000.0001) %MON forcing_fv_max               =   5.8523054442063E-01
(PID.TID 0000.0001) %MON forcing_fv_min               =  -1.8040305592542E-01
(PID.TID 0000.0001) %MON forcing_fv_mean              =   9.8415116797796E-02
(PID.TID 0000.0001) %MON forcing_fv_sd                =   1.3586244698524E-01
(PID.TID 0000.0001) %MON forcing_fv_del2              =   2.2841041181492E-07
(PID.TID 0000.0001) %MON trAdv_CFL_u_max              =   1.3361121478035E-01
(PID.TID 0000.0001) %MON trAdv_CFL_v_max              =   7.8566741916957E-02
(PID.TID 0000.0001) %MON trAdv_CFL_w_max              =   4.6440536260439E-01
(PID.TID 0000.0001) %MON advcfl_uvel_max              =   1.3365131923170E-01
(PID.TID 0000.0001) %MON advcfl_vvel_max              =   7.8566743321111E-02
(PID.TID 0000.0001) %MON advcfl_wvel_max              =   4.6578342006019E-01
(PID.TID 0000.0001) %MON advcfl_W_hf_max              =   4.6716968023894E-01
(PID.TID 0000.0001) %MON pe_b_mean                    =  -2.8604496054170E-04
(PID.TID 0000.0001) %MON ke_max                       =   2.0235095075128E+00
(PID.TID 0000.0001) %MON ke_mean                      =   2.5405095338181E-03
(PID.TID 0000.0001) %MON ke_vol                       =   4.5818637829946E+16
(PID.TID 0000.0001) %MON vort_r_min                   =  -4.9815862184303E-04
(PID.TID 0000.0001) %MON vort_r_max                   =   5.4915228318813E-04
(PID.TID 0000.0001) %MON vort_a_mean                  =   8.2147628231700E-05
(PID.TID 0000.0001) %MON vort_a_sd                    =   1.0127551637929E-05
(PID.TID 0000.0001) %MON vort_p_mean                  =   8.4848850715355E-05
(PID.TID 0000.0001) %MON vort_p_sd                    =   3.4979525256235E-05
(PID.TID 0000.0001) %MON surfExpan_theta_mean         =  -9.7423738626318E-05
(PID.TID 0000.0001) %MON surfExpan_salt_mean          =  -5.2810136895880E-04
(PID.TID 0000.0001) // =======================================================
(PID.TID 0000.0001) // End MONITOR dynamic field statistics
(PID.TID 0000.0001) // =======================================================
(PID.TID 0000.0001) // =======================================================
(PID.TID 0000.0001) // Begin OBCS MONITOR field statistics
(PID.TID 0000.0001) // =======================================================
(PID.TID 0000.0001) %MON obc_E_uVel_max               =   2.6324203494468E-01
(PID.TID 0000.0001) %MON obc_E_uVel_min               =  -2.1146570329188E+00
(PID.TID 0000.0001) %MON obc_E_uVel_mean              =   2.4720692470062E-03
(PID.TID 0000.0001) %MON obc_E_uVel_sd                =   4.4083966400720E-02
(PID.TID 0000.0001) %MON obc_E_uVel_Int               =   4.7745545351192E+07
(PID.TID 0000.0001) %MON obc_W_uVel_max               =   3.2266129354331E-01
(PID.TID 0000.0001) %MON obc_W_uVel_min               =  -6.9518801174216E-01
(PID.TID 0000.0001) %MON obc_W_uVel_mean              =  -5.9041964589636E-03
(PID.TID 0000.0001) %MON obc_W_uVel_sd                =   8.6954346149133E-02
(PID.TID 0000.0001) %MON obc_W_uVel_Int               =  -3.5954385729447E+07
(PID.TID 0000.0001) %MON obc_N_vVel_max               =   3.0213918292370E-01
(PID.TID 0000.0001) %MON obc_N_vVel_min               =  -1.0219848899024E-01
(PID.TID 0000.0001) %MON obc_N_vVel_mean              =   1.9125811468594E-02
(PID.TID 0000.0001) %MON obc_N_vVel_sd                =   4.0167725134222E-02
(PID.TID 0000.0001) %MON obc_N_vVel_Int               =   1.5731844342527E+08
(PID.TID 0000.0001) %MON obc_S_vVel_max               =   5.4536701170186E-02
(PID.TID 0000.0001) %MON obc_S_vVel_min               =  -8.9019315971475E-02
(PID.TID 0000.0001) %MON obc_S_vVel_mean              =   6.0218594434121E-03
(PID.TID 0000.0001) %MON obc_S_vVel_sd                =   1.1459457032238E-02
(PID.TID 0000.0001) %MON obc_S_vVel_Int               =   6.7016669332167E+07
(PID.TID 0000.0001) %MON obc_E_theta_max              =   2.5544427564909E+01
(PID.TID 0000.0001) %MON obc_E_theta_min              =   1.4632976223230E+00
(PID.TID 0000.0001) %MON obc_E_theta_mean             =   5.4563379787924E+00
(PID.TID 0000.0001) %MON obc_E_theta_sd               =   5.6195846072241E+00
(PID.TID 0000.0001) %MON obc_W_theta_max              =   1.5386350574271E+01
(PID.TID 0000.0001) %MON obc_W_theta_min              =   1.8895909723125E+00
(PID.TID 0000.0001) %MON obc_W_theta_mean             =   4.2051669264862E+00
(PID.TID 0000.0001) %MON obc_W_theta_sd               =   2.6438318557462E+00
(PID.TID 0000.0001) %MON obc_N_theta_max              =   1.6390420534228E+01
(PID.TID 0000.0001) %MON obc_N_theta_min              =   2.0877932910910E+00
(PID.TID 0000.0001) %MON obc_N_theta_mean             =   5.8650627335946E+00
(PID.TID 0000.0001) %MON obc_N_theta_sd               =   3.8421129878773E+00
(PID.TID 0000.0001) %MON obc_S_theta_max              =   2.3210938433874E+01
(PID.TID 0000.0001) %MON obc_S_theta_min              =   1.8976912970089E+00
(PID.TID 0000.0001) %MON obc_S_theta_mean             =   5.4651346755151E+00
(PID.TID 0000.0001) %MON obc_S_theta_sd               =   4.8645179624137E+00
(PID.TID 0000.0001) %MON obc_E_salt_max               =   3.7284761626835E+01
(PID.TID 0000.0001) %MON obc_E_salt_min               =   3.4844694574919E+01
(PID.TID 0000.0001) %MON obc_E_salt_mean              =   3.5160048487031E+01
(PID.TID 0000.0001) %MON obc_E_salt_sd                =   4.6599323558781E-01
(PID.TID 0000.0001) %MON obc_W_salt_max               =   3.5867259423972E+01
(PID.TID 0000.0001) %MON obc_W_salt_min               =   3.3295041583212E+01
(PID.TID 0000.0001) %MON obc_W_salt_mean              =   3.4957943886784E+01
(PID.TID 0000.0001) %MON obc_W_salt_sd                =   2.4692597453041E-01
(PID.TID 0000.0001) %MON obc_N_salt_max               =   3.5910865606142E+01
(PID.TID 0000.0001) %MON obc_N_salt_min               =   3.4917014959058E+01
(PID.TID 0000.0001) %MON obc_N_salt_mean              =   3.5230514133226E+01
(PID.TID 0000.0001) %MON obc_N_salt_sd                =   3.0056329171628E-01
(PID.TID 0000.0001) %MON obc_S_salt_max               =   3.7318312208701E+01
(PID.TID 0000.0001) %MON obc_S_salt_min               =   3.4884963766451E+01
(PID.TID 0000.0001) %MON obc_S_salt_mean              =   3.5182818887709E+01
(PID.TID 0000.0001) %MON obc_S_salt_sd                =   4.4106444670916E-01
(PID.TID 0000.0001) // =======================================================
(PID.TID 0000.0001) // End OBCS MONITOR field statistics
(PID.TID 0000.0001) // =======================================================
(PID.TID 0000.0001) // =======================================================
(PID.TID 0000.0001) // Begin MONITOR EXF statistics
(PID.TID 0000.0001) // =======================================================
(PID.TID 0000.0001) %MON exf_tsnumber                 =                     5
(PID.TID 0000.0001) %MON exf_time_sec                 =   1.2000000000000E+03
(PID.TID 0000.0001) %MON exf_ustress_max              =   5.2213683137045E-01
(PID.TID 0000.0001) %MON exf_ustress_min              =  -3.1348747723723E-01
(PID.TID 0000.0001) %MON exf_ustress_mean             =   7.1067328667411E-02
(PID.TID 0000.0001) %MON exf_ustress_sd               =   1.4073179787858E-01
(PID.TID 0000.0001) %MON exf_ustress_del2             =   2.8888428772753E-07
(PID.TID 0000.0001) %MON exf_vstress_max              =   5.8267795961873E-01
(PID.TID 0000.0001) %MON exf_vstress_min              =  -1.7974794772300E-01
(PID.TID 0000.0001) %MON exf_vstress_mean             =   9.8125113029550E-02
(PID.TID 0000.0001) %MON exf_vstress_sd               =   1.3555940488228E-01
(PID.TID 0000.0001) %MON exf_vstress_del2             =   2.5058348751355E-07
(PID.TID 0000.0001) %MON exf_hflux_max                =   1.0651028764430E+03
(PID.TID 0000.0001) %MON exf_hflux_min                =  -1.3376153058171E+02
(PID.TID 0000.0001) %MON exf_hflux_mean               =   3.2378961492118E+02
(PID.TID 0000.0001) %MON exf_hflux_sd                 =   2.1203521913250E+02
(PID.TID 0000.0001) %MON exf_hflux_del2               =   8.6637573276146E-02
(PID.TID 0000.0001) %MON exf_sflux_max                =   2.2763807759413E-07
(PID.TID 0000.0001) %MON exf_sflux_min                =  -1.0241164352587E-06
(PID.TID 0000.0001) %MON exf_sflux_mean               =   4.2434994856094E-08
(PID.TID 0000.0001) %MON exf_sflux_sd                 =   1.0690465640963E-07
(PID.TID 0000.0001) %MON exf_sflux_del2               =   2.3859396997774E-11
(PID.TID 0000.0001) %MON exf_uwind_max                =   1.5827573923005E+01
(PID.TID 0000.0001) %MON exf_uwind_min                =  -1.3047433230337E+01
(PID.TID 0000.0001) %MON exf_uwind_mean               =   2.9700888998936E+00
(PID.TID 0000.0001) %MON exf_uwind_sd                 =   6.7551877641665E+00
(PID.TID 0000.0001) %MON exf_uwind_del2               =   1.6377638538551E-03
(PID.TID 0000.0001) %MON exf_vwind_max                =   1.4956291282572E+01
(PID.TID 0000.0001) %MON exf_vwind_min                =  -1.0549030056398E+01
(PID.TID 0000.0001) %MON exf_vwind_mean               =   4.6390172274553E+00
(PID.TID 0000.0001) %MON exf_vwind_sd                 =   5.9744714476004E+00
(PID.TID 0000.0001) %MON exf_vwind_del2               =   1.6899170539328E-03
(PID.TID 0000.0001) %MON exf_wspeed_max               =   1.8398308183460E+01
(PID.TID 0000.0001) %MON exf_wspeed_min               =   1.3119703730009E-02
(PID.TID 0000.0001) %MON exf_wspeed_mean              =   9.9434996320006E+00
(PID.TID 0000.0001) %MON exf_wspeed_sd                =   3.5770930635977E+00
(PID.TID 0000.0001) %MON exf_wspeed_del2              =   2.3532510002535E-03
(PID.TID 0000.0001) %MON exf_atemp_max                =   2.9779138535689E+02
(PID.TID 0000.0001) %MON exf_atemp_min                =   2.7429950868407E+02
(PID.TID 0000.0001) %MON exf_atemp_mean               =   2.8987785967059E+02
(PID.TID 0000.0001) %MON exf_atemp_sd                 =   4.3179469974317E+00
(PID.TID 0000.0001) %MON exf_atemp_del2               =   3.7039337948993E-03
(PID.TID 0000.0001) %MON exf_aqh_max                  =   1.4761196635299E-02
(PID.TID 0000.0001) %MON exf_aqh_min                  =   3.0783335271898E-03
(PID.TID 0000.0001) %MON exf_aqh_mean                 =   9.5866122071204E-03
(PID.TID 0000.0001) %MON exf_aqh_sd                   =   2.2667725598950E-03
(PID.TID 0000.0001) %MON exf_aqh_del2                 =   2.1307536611279E-06
(PID.TID 0000.0001) %MON exf_lwflux_max               =   1.5758281815825E+02
(PID.TID 0000.0001) %MON exf_lwflux_min               =   7.8110347266114E-01
(PID.TID 0000.0001) %MON exf_lwflux_mean              =   7.2766073054716E+01
(PID.TID 0000.0001) %MON exf_lwflux_sd                =   2.7856184936602E+01
(PID.TID 0000.0001) %MON exf_lwflux_del2              =   1.7287973735487E-02
(PID.TID 0000.0001) %MON exf_evap_max                 =   2.4977081705131E-07
(PID.TID 0000.0001) %MON exf_evap_min                 =  -4.2182070719960E-08
(PID.TID 0000.0001) %MON exf_evap_mean                =   7.9656550372036E-08
(PID.TID 0000.0001) %MON exf_evap_sd                  =   5.6038623787454E-08
(PID.TID 0000.0001) %MON exf_evap_del2                =   2.1563278990259E-11
(PID.TID 0000.0001) %MON exf_precip_max               =   1.0236553540350E-06
(PID.TID 0000.0001) %MON exf_precip_min               =   0.0000000000000E+00
(PID.TID 0000.0001) %MON exf_precip_mean              =   3.5633075319507E-08
(PID.TID 0000.0001) %MON exf_precip_sd                =   8.0508394404401E-08
(PID.TID 0000.0001) %MON exf_precip_del2              =   1.7731204574266E-11
(PID.TID 0000.0001) %MON exf_swflux_max               =   0.0000000000000E+00
(PID.TID 0000.0001) %MON exf_swflux_min               =  -1.8455353569025E+01
(PID.TID 0000.0001) %MON exf_swflux_mean              =  -6.1466953188161E-01
(PID.TID 0000.0001) %MON exf_swflux_sd                =   1.9490957265388E+00
(PID.TID 0000.0001) %MON exf_swflux_del2              =   4.2161309214647E-04
(PID.TID 0000.0001) %MON exf_swdown_max               =   2.0505948410028E+01
(PID.TID 0000.0001) %MON exf_swdown_min               =   0.0000000000000E+00
(PID.TID 0000.0001) %MON exf_swdown_mean              =   6.8296614653512E-01
(PID.TID 0000.0001) %MON exf_swdown_sd                =   2.1656619183764E+00
(PID.TID 0000.0001) %MON exf_swdown_del2              =   4.6845899127385E-04
(PID.TID 0000.0001) %MON exf_lwdown_max               =   4.0227141112808E+02
(PID.TID 0000.0001) %MON exf_lwdown_min               =   2.4884374163589E+02
(PID.TID 0000.0001) %MON exf_lwdown_mean              =   3.4205662718750E+02
(PID.TID 0000.0001) %MON exf_lwdown_sd                =   2.7517883284360E+01
(PID.TID 0000.0001) %MON exf_lwdown_del2              =   7.4680554521596E-02
(PID.TID 0000.0001) %MON exf_apressure_max            =   1.0139961991682E+05
(PID.TID 0000.0001) %MON exf_apressure_min            =   9.5354813436114E+04
(PID.TID 0000.0001) %MON exf_apressure_mean           =   9.9192587929883E+04
(PID.TID 0000.0001) %MON exf_apressure_sd             =   1.4075368441917E+03
(PID.TID 0000.0001) %MON exf_apressure_del2           =   2.1701826407744E+01
(PID.TID 0000.0001) %MON exf_runoff_max               =   4.4374822325994E-08
(PID.TID 0000.0001) %MON exf_runoff_min               =   0.0000000000000E+00
(PID.TID 0000.0001) %MON exf_runoff_mean              =   1.5884801964352E-09
(PID.TID 0000.0001) %MON exf_runoff_sd                =   5.3901974500338E-09
(PID.TID 0000.0001) %MON exf_runoff_del2              =   1.2741192460478E-12
(PID.TID 0000.0001) // =======================================================
(PID.TID 0000.0001) // End MONITOR EXF statistics
(PID.TID 0000.0001) // =======================================================
 cg2d: Sum(rhs),rhsMax =   5.26204313402446E+02  5.64507796933493E-02
(PID.TID 0000.0001)      cg2d_init_res =   1.61388509962483E+00
(PID.TID 0000.0001)      cg2d_iters(min,last) =      -1     316
(PID.TID 0000.0001)      cg2d_last_res =   6.89324515087317E-12
(PID.TID 0000.0001) // =======================================================
(PID.TID 0000.0001) // Begin MONITOR dynamic field statistics
(PID.TID 0000.0001) // =======================================================
(PID.TID 0000.0001) %MON time_tsnumber                =                     6
(PID.TID 0000.0001) %MON time_secondsf                =   1.4400000000000E+03
(PID.TID 0000.0001) %MON dynstat_eta_max              =   1.0279088607473E+00
(PID.TID 0000.0001) %MON dynstat_eta_min              =  -1.3306794705429E+00
(PID.TID 0000.0001) %MON dynstat_eta_mean             =  -1.7894604073881E-02
(PID.TID 0000.0001) %MON dynstat_eta_sd               =   1.8769521268821E-01
(PID.TID 0000.0001) %MON dynstat_eta_del2             =   2.4096324080975E-06
(PID.TID 0000.0001) %MON dynstat_uvel_max             =   8.8783741895133E-01
(PID.TID 0000.0001) %MON dynstat_uvel_min             =  -2.1780796058193E+00
(PID.TID 0000.0001) %MON dynstat_uvel_mean            =   4.4369073426929E-03
(PID.TID 0000.0001) %MON dynstat_uvel_sd              =   5.0115597838031E-02
(PID.TID 0000.0001) %MON dynstat_uvel_del2            =   4.3543252308103E-07
(PID.TID 0000.0001) %MON dynstat_vvel_max             =   1.2966879729921E+00
(PID.TID 0000.0001) %MON dynstat_vvel_min             =  -8.8683889940002E-01
(PID.TID 0000.0001) %MON dynstat_vvel_mean            =   3.9220112120918E-03
(PID.TID 0000.0001) %MON dynstat_vvel_sd              =   5.0874293205555E-02
(PID.TID 0000.0001) %MON dynstat_vvel_del2            =   4.7011530509748E-07
(PID.TID 0000.0001) %MON dynstat_wvel_max             =   3.6721869813220E-02
(PID.TID 0000.0001) %MON dynstat_wvel_min             =  -3.0076251838630E-02
(PID.TID 0000.0001) %MON dynstat_wvel_mean            =  -9.2019633273895E-06
(PID.TID 0000.0001) %MON dynstat_wvel_sd              =   5.8762771465876E-04
(PID.TID 0000.0001) %MON dynstat_wvel_del2            =   7.6874008647439E-08
(PID.TID 0000.0001) %MON dynstat_theta_max            =   2.6138102591460E+01
(PID.TID 0000.0001) %MON dynstat_theta_min            =   1.4688643411591E+00
(PID.TID 0000.0001) %MON dynstat_theta_mean           =   5.5098383385876E+00
(PID.TID 0000.0001) %MON dynstat_theta_sd             =   4.7733595544478E+00
(PID.TID 0000.0001) %MON dynstat_theta_del2           =   4.0121952595000E-06
(PID.TID 0000.0001) %MON dynstat_salt_max             =   3.9173753690661E+01
(PID.TID 0000.0001) %MON dynstat_salt_min             =   3.3090429541897E+01
(PID.TID 0000.0001) %MON dynstat_salt_mean            =   3.5173367302187E+01
(PID.TID 0000.0001) %MON dynstat_salt_sd              =   3.7891212650542E-01
(PID.TID 0000.0001) %MON dynstat_salt_del2            =   5.0672135968814E-07
(PID.TID 0000.0001) %MON dynstat_sst_max              =   2.6128870676749E+01
(PID.TID 0000.0001) %MON dynstat_sst_min              =   4.0015122691144E+00
(PID.TID 0000.0001) %MON dynstat_sst_mean             =   1.9639501946713E+01
(PID.TID 0000.0001) %MON dynstat_sst_sd               =   3.6366214468435E+00
(PID.TID 0000.0001) %MON dynstat_sst_del2             =   1.9101191965388E-05
(PID.TID 0000.0001) %MON dynstat_sss_max              =   3.7335263296978E+01
(PID.TID 0000.0001) %MON dynstat_sss_min              =   3.3090429541897E+01
(PID.TID 0000.0001) %MON dynstat_sss_mean             =   3.5868333815501E+01
(PID.TID 0000.0001) %MON dynstat_sss_sd               =   4.8734558294082E-01
(PID.TID 0000.0001) %MON dynstat_sss_del2             =   4.9635669652953E-06
(PID.TID 0000.0001) %MON forcing_qnet_max             =   1.0812061079272E+03
(PID.TID 0000.0001) %MON forcing_qnet_min             =  -1.7290449119153E+02
(PID.TID 0000.0001) %MON forcing_qnet_mean            =   3.2818811793206E+02
(PID.TID 0000.0001) %MON forcing_qnet_sd              =   2.1781636632624E+02
(PID.TID 0000.0001) %MON forcing_qnet_del2            =   1.1854557393173E-03
(PID.TID 0000.0001) %MON forcing_qsw_max              =   0.0000000000000E+00
(PID.TID 0000.0001) %MON forcing_qsw_min              =  -1.8455353569025E+01
(PID.TID 0000.0001) %MON forcing_qsw_mean             =  -6.1466953188161E-01
(PID.TID 0000.0001) %MON forcing_qsw_sd               =   1.9490957265388E+00
(PID.TID 0000.0001) %MON forcing_qsw_del2             =   6.2768708976022E-06
(PID.TID 0000.0001) %MON forcing_empmr_max            =   2.2763807759413E-04
(PID.TID 0000.0001) %MON forcing_empmr_min            =  -1.0241164352587E-03
(PID.TID 0000.0001) %MON forcing_empmr_mean           =   4.2434994856094E-05
(PID.TID 0000.0001) %MON forcing_empmr_sd             =   1.0690465640963E-04
(PID.TID 0000.0001) %MON forcing_empmr_del2           =   8.7667535195378E-10
(PID.TID 0000.0001) %MON forcing_fu_max               =   5.2210066036306E-01
(PID.TID 0000.0001) %MON forcing_fu_min               =  -3.1344889841175E-01
(PID.TID 0000.0001) %MON forcing_fu_mean              =   7.1175328223249E-02
(PID.TID 0000.0001) %MON forcing_fu_sd                =   1.4074321734127E-01
(PID.TID 0000.0001) %MON forcing_fu_del2              =   2.6781030191069E-07
(PID.TID 0000.0001) %MON forcing_fv_max               =   5.8265303905265E-01
(PID.TID 0000.0001) %MON forcing_fv_min               =  -1.7974699189775E-01
(PID.TID 0000.0001) %MON forcing_fv_mean              =   9.8152346629876E-02
(PID.TID 0000.0001) %MON forcing_fv_sd                =   1.3556850495539E-01
(PID.TID 0000.0001) %MON forcing_fv_del2              =   2.2797498177735E-07
(PID.TID 0000.0001) %MON trAdv_CFL_u_max              =   1.3761846838120E-01
(PID.TID 0000.0001) %MON trAdv_CFL_v_max              =   7.8671047357736E-02
(PID.TID 0000.0001) %MON trAdv_CFL_w_max              =   4.7478485929673E-01
(PID.TID 0000.0001) %MON advcfl_uvel_max              =   1.3765977564107E-01
(PID.TID 0000.0001) %MON advcfl_vvel_max              =   7.8671048763754E-02
(PID.TID 0000.0001) %MON advcfl_wvel_max              =   4.7110435651148E-01
(PID.TID 0000.0001) %MON advcfl_W_hf_max              =   4.7478485929673E-01
(PID.TID 0000.0001) %MON pe_b_mean                    =  -3.7662437930498E-04
(PID.TID 0000.0001) %MON ke_max                       =   2.1610954858163E+00
(PID.TID 0000.0001) %MON ke_mean                      =   2.5486280521875E-03
(PID.TID 0000.0001) %MON ke_vol                       =   4.5818637829946E+16
(PID.TID 0000.0001) %MON vort_r_min                   =  -5.0461232124782E-04
(PID.TID 0000.0001) %MON vort_r_max                   =   5.4389258319258E-04
(PID.TID 0000.0001) %MON vort_a_mean                  =   8.2147627460591E-05
(PID.TID 0000.0001) %MON vort_a_sd                    =   1.0130419417952E-05
(PID.TID 0000.0001) %MON vort_p_mean                  =   8.4848849918889E-05
(PID.TID 0000.0001) %MON vort_p_sd                    =   3.4979478455889E-05
(PID.TID 0000.0001) %MON surfExpan_theta_mean         =  -1.3967274520587E-04
(PID.TID 0000.0001) %MON surfExpan_salt_mean          =  -5.9971665961896E-04
(PID.TID 0000.0001) // =======================================================
(PID.TID 0000.0001) // End MONITOR dynamic field statistics
(PID.TID 0000.0001) // =======================================================
(PID.TID 0000.0001) // =======================================================
(PID.TID 0000.0001) // Begin OBCS MONITOR field statistics
(PID.TID 0000.0001) // =======================================================
(PID.TID 0000.0001) %MON obc_E_uVel_max               =   2.6335608887903E-01
(PID.TID 0000.0001) %MON obc_E_uVel_min               =  -2.1780796058193E+00
(PID.TID 0000.0001) %MON obc_E_uVel_mean              =   2.9777074807696E-03
(PID.TID 0000.0001) %MON obc_E_uVel_sd                =   4.4172899180351E-02
(PID.TID 0000.0001) %MON obc_E_uVel_Int               =   5.7511442180612E+07
(PID.TID 0000.0001) %MON obc_W_uVel_max               =   3.2284741773255E-01
(PID.TID 0000.0001) %MON obc_W_uVel_min               =  -6.9508125961288E-01
(PID.TID 0000.0001) %MON obc_W_uVel_mean              =  -5.7151384896691E-03
(PID.TID 0000.0001) %MON obc_W_uVel_sd                =   8.6834878654507E-02
(PID.TID 0000.0001) %MON obc_W_uVel_Int               =  -3.4803092204497E+07
(PID.TID 0000.0001) %MON obc_N_vVel_max               =   3.0251430900843E-01
(PID.TID 0000.0001) %MON obc_N_vVel_min               =  -1.0182582067293E-01
(PID.TID 0000.0001) %MON obc_N_vVel_mean              =   1.9328142603839E-02
(PID.TID 0000.0001) %MON obc_N_vVel_sd                =   4.0276213531706E-02
(PID.TID 0000.0001) %MON obc_N_vVel_Int               =   1.5898270845818E+08
(PID.TID 0000.0001) %MON obc_S_vVel_max               =   5.3665770948755E-02
(PID.TID 0000.0001) %MON obc_S_vVel_min               =  -8.9492847191139E-02
(PID.TID 0000.0001) %MON obc_S_vVel_mean              =   4.9733529347630E-03
(PID.TID 0000.0001) %MON obc_S_vVel_sd                =   1.1436363833016E-02
(PID.TID 0000.0001) %MON obc_S_vVel_Int               =   5.5347945635928E+07
(PID.TID 0000.0001) %MON obc_E_theta_max              =   2.5544324816130E+01
(PID.TID 0000.0001) %MON obc_E_theta_min              =   1.4632980186102E+00
(PID.TID 0000.0001) %MON obc_E_theta_mean             =   5.4563376407367E+00
(PID.TID 0000.0001) %MON obc_E_theta_sd               =   5.6195809935965E+00
(PID.TID 0000.0001) %MON obc_W_theta_max              =   1.5386230660660E+01
(PID.TID 0000.0001) %MON obc_W_theta_min              =   1.8895910213779E+00
(PID.TID 0000.0001) %MON obc_W_theta_mean             =   4.2051547059673E+00
(PID.TID 0000.0001) %MON obc_W_theta_sd               =   2.6438116112826E+00
(PID.TID 0000.0001) %MON obc_N_theta_max              =   1.6390332432041E+01
(PID.TID 0000.0001) %MON obc_N_theta_min              =   2.0877900159171E+00
(PID.TID 0000.0001) %MON obc_N_theta_mean             =   5.8650589300026E+00
(PID.TID 0000.0001) %MON obc_N_theta_sd               =   3.8421070961859E+00
(PID.TID 0000.0001) %MON obc_S_theta_max              =   2.3210854496783E+01
(PID.TID 0000.0001) %MON obc_S_theta_min              =   1.8976912862711E+00
(PID.TID 0000.0001) %MON obc_S_theta_mean             =   5.4651330600748E+00
(PID.TID 0000.0001) %MON obc_S_theta_sd               =   4.8645135494261E+00
(PID.TID 0000.0001) %MON obc_E_salt_max               =   3.7284749557318E+01
(PID.TID 0000.0001) %MON obc_E_salt_min               =   3.4844694627139E+01
(PID.TID 0000.0001) %MON obc_E_salt_mean              =   3.5160048556889E+01
(PID.TID 0000.0001) %MON obc_E_salt_sd                =   4.6599326516594E-01
(PID.TID 0000.0001) %MON obc_W_salt_max               =   3.5867259927028E+01
(PID.TID 0000.0001) %MON obc_W_salt_min               =   3.3295047085845E+01
(PID.TID 0000.0001) %MON obc_W_salt_mean              =   3.4957943361481E+01
(PID.TID 0000.0001) %MON obc_W_salt_sd                =   2.4692523995694E-01
(PID.TID 0000.0001) %MON obc_N_salt_max               =   3.5910865197779E+01
(PID.TID 0000.0001) %MON obc_N_salt_min               =   3.4917014945133E+01
(PID.TID 0000.0001) %MON obc_N_salt_mean              =   3.5230514007012E+01
(PID.TID 0000.0001) %MON obc_N_salt_sd                =   3.0056337050625E-01
(PID.TID 0000.0001) %MON obc_S_salt_max               =   3.7318305324317E+01
(PID.TID 0000.0001) %MON obc_S_salt_min               =   3.4884963762621E+01
(PID.TID 0000.0001) %MON obc_S_salt_mean              =   3.5182818569744E+01
(PID.TID 0000.0001) %MON obc_S_salt_sd                =   4.4106340975130E-01
(PID.TID 0000.0001) // =======================================================
(PID.TID 0000.0001) // End OBCS MONITOR field statistics
(PID.TID 0000.0001) // =======================================================
(PID.TID 0000.0001) // =======================================================
(PID.TID 0000.0001) // Begin MONITOR EXF statistics
(PID.TID 0000.0001) // =======================================================
(PID.TID 0000.0001) %MON exf_tsnumber                 =                     6
(PID.TID 0000.0001) %MON exf_time_sec                 =   1.4400000000000E+03
(PID.TID 0000.0001) %MON exf_ustress_max              =   5.1912702389942E-01
(PID.TID 0000.0001) %MON exf_ustress_min              =  -3.1513929950985E-01
(PID.TID 0000.0001) %MON exf_ustress_mean             =   7.0746664569231E-02
(PID.TID 0000.0001) %MON exf_ustress_sd               =   1.4052600961647E-01
(PID.TID 0000.0001) %MON exf_ustress_del2             =   2.9097560688049E-07
(PID.TID 0000.0001) %MON exf_vstress_max              =   5.8026421397684E-01
(PID.TID 0000.0001) %MON exf_vstress_min              =  -1.7911841341463E-01
(PID.TID 0000.0001) %MON exf_vstress_mean             =   9.7875871917244E-02
(PID.TID 0000.0001) %MON exf_vstress_sd               =   1.3529679031130E-01
(PID.TID 0000.0001) %MON exf_vstress_del2             =   2.5148661602531E-07
(PID.TID 0000.0001) %MON exf_hflux_max                =   1.0635689483331E+03
(PID.TID 0000.0001) %MON exf_hflux_min                =  -1.3294788058113E+02
(PID.TID 0000.0001) %MON exf_hflux_mean               =   3.2349575020227E+02
(PID.TID 0000.0001) %MON exf_hflux_sd                 =   2.1169329027489E+02
(PID.TID 0000.0001) %MON exf_hflux_del2               =   8.6528112179609E-02
(PID.TID 0000.0001) %MON exf_sflux_max                =   2.2716819766496E-07
(PID.TID 0000.0001) %MON exf_sflux_min                =  -1.0373340744101E-06
(PID.TID 0000.0001) %MON exf_sflux_mean               =   4.2246124098811E-08
(PID.TID 0000.0001) %MON exf_sflux_sd                 =   1.0738195759646E-07
(PID.TID 0000.0001) %MON exf_sflux_del2               =   2.3920891009944E-11
(PID.TID 0000.0001) %MON exf_uwind_max                =   1.5771054886820E+01
(PID.TID 0000.0001) %MON exf_uwind_min                =  -1.3082714239363E+01
(PID.TID 0000.0001) %MON exf_uwind_mean               =   2.9610032120111E+00
(PID.TID 0000.0001) %MON exf_uwind_sd                 =   6.7580683149231E+00
(PID.TID 0000.0001) %MON exf_uwind_del2               =   1.6374803657270E-03
(PID.TID 0000.0001) %MON exf_vwind_max                =   1.4930855729715E+01
(PID.TID 0000.0001) %MON exf_vwind_min                =  -1.0528987664502E+01
(PID.TID 0000.0001) %MON exf_vwind_mean               =   4.6323545666751E+00
(PID.TID 0000.0001) %MON exf_vwind_sd                 =   5.9679984491377E+00
(PID.TID 0000.0001) %MON exf_vwind_del2               =   1.6880845325153E-03
(PID.TID 0000.0001) %MON exf_wspeed_max               =   1.8380084721311E+01
(PID.TID 0000.0001) %MON exf_wspeed_min               =   3.6937269378207E-02
(PID.TID 0000.0001) %MON exf_wspeed_mean              =   9.9371560031975E+00
(PID.TID 0000.0001) %MON exf_wspeed_sd                =   3.5731879686255E+00
(PID.TID 0000.0001) %MON exf_wspeed_del2              =   2.3517390167965E-03
(PID.TID 0000.0001) %MON exf_atemp_max                =   2.9779093132830E+02
(PID.TID 0000.0001) %MON exf_atemp_min                =   2.7431063583722E+02
(PID.TID 0000.0001) %MON exf_atemp_mean               =   2.8987793318435E+02
(PID.TID 0000.0001) %MON exf_atemp_sd                 =   4.3145505831723E+00
(PID.TID 0000.0001) %MON exf_atemp_del2               =   3.7039105728942E-03
(PID.TID 0000.0001) %MON exf_aqh_max                  =   1.4782801297136E-02
(PID.TID 0000.0001) %MON exf_aqh_min                  =   3.0858806155413E-03
(PID.TID 0000.0001) %MON exf_aqh_mean                 =   9.5862290250813E-03
(PID.TID 0000.0001) %MON exf_aqh_sd                   =   2.2644386841021E-03
(PID.TID 0000.0001) %MON exf_aqh_del2                 =   2.1306189186619E-06
(PID.TID 0000.0001) %MON exf_lwflux_max               =   1.5737088392006E+02
(PID.TID 0000.0001) %MON exf_lwflux_min               =   4.0052071212770E-01
(PID.TID 0000.0001) %MON exf_lwflux_mean              =   7.2758468665787E+01
(PID.TID 0000.0001) %MON exf_lwflux_sd                =   2.7875798930375E+01
(PID.TID 0000.0001) %MON exf_lwflux_del2              =   1.7286636194492E-02
(PID.TID 0000.0001) %MON exf_evap_max                 =   2.4942012239590E-07
(PID.TID 0000.0001) %MON exf_evap_min                 =  -4.2032128149562E-08
(PID.TID 0000.0001) %MON exf_evap_mean                =   7.9562537840294E-08
(PID.TID 0000.0001) %MON exf_evap_sd                  =   5.5936742161877E-08
(PID.TID 0000.0001) %MON exf_evap_del2                =   2.1531482701709E-11
(PID.TID 0000.0001) %MON exf_precip_max               =   1.0367656635984E-06
(PID.TID 0000.0001) %MON exf_precip_min               =   0.0000000000000E+00
(PID.TID 0000.0001) %MON exf_precip_mean              =   3.5727933545048E-08
(PID.TID 0000.0001) %MON exf_precip_sd                =   8.1074385850684E-08
(PID.TID 0000.0001) %MON exf_precip_del2              =   1.7837213639660E-11
(PID.TID 0000.0001) %MON exf_swflux_max               =   0.0000000000000E+00
(PID.TID 0000.0001) %MON exf_swflux_min               =  -1.7400761936509E+01
(PID.TID 0000.0001) %MON exf_swflux_mean              =  -5.7954555863123E-01
(PID.TID 0000.0001) %MON exf_swflux_sd                =   1.8377188278794E+00
(PID.TID 0000.0001) %MON exf_swflux_del2              =   3.9752091545238E-04
(PID.TID 0000.0001) %MON exf_swdown_max               =   1.9334179929455E+01
(PID.TID 0000.0001) %MON exf_swdown_min               =   0.0000000000000E+00
(PID.TID 0000.0001) %MON exf_swdown_mean              =   6.4393950959026E-01
(PID.TID 0000.0001) %MON exf_swdown_sd                =   2.0419098087549E+00
(PID.TID 0000.0001) %MON exf_swdown_del2              =   4.4168990605820E-04
(PID.TID 0000.0001) %MON exf_lwdown_max               =   4.0237340486244E+02
(PID.TID 0000.0001) %MON exf_lwdown_min               =   2.4889027587026E+02
(PID.TID 0000.0001) %MON exf_lwdown_mean              =   3.4205760526856E+02
(PID.TID 0000.0001) %MON exf_lwdown_sd                =   2.7521340285571E+01
(PID.TID 0000.0001) %MON exf_lwdown_del2              =   7.4681216048274E-02
(PID.TID 0000.0001) %MON exf_apressure_max            =   1.0131904658626E+05
(PID.TID 0000.0001) %MON exf_apressure_min            =   9.5372254934893E+04
(PID.TID 0000.0001) %MON exf_apressure_mean           =   9.9146262501543E+04
(PID.TID 0000.0001) %MON exf_apressure_sd             =   1.3870332934207E+03
(PID.TID 0000.0001) %MON exf_apressure_del2           =   2.1691740051255E+01
(PID.TID 0000.0001) %MON exf_runoff_max               =   4.4374822325994E-08
(PID.TID 0000.0001) %MON exf_runoff_min               =   0.0000000000000E+00
(PID.TID 0000.0001) %MON exf_runoff_mean              =   1.5884801964352E-09
(PID.TID 0000.0001) %MON exf_runoff_sd                =   5.3901974500338E-09
(PID.TID 0000.0001) %MON exf_runoff_del2              =   1.2741192460478E-12
(PID.TID 0000.0001) // =======================================================
(PID.TID 0000.0001) // End MONITOR EXF statistics
(PID.TID 0000.0001) // =======================================================
 cg2d: Sum(rhs),rhsMax =   6.62124506471798E+02  5.31683539592226E-02
(PID.TID 0000.0001)      cg2d_init_res =   1.48322581173346E+00
(PID.TID 0000.0001)      cg2d_iters(min,last) =      -1     316
(PID.TID 0000.0001)      cg2d_last_res =   6.66594544172623E-12
(PID.TID 0000.0001) // =======================================================
(PID.TID 0000.0001) // Begin MONITOR dynamic field statistics
(PID.TID 0000.0001) // =======================================================
(PID.TID 0000.0001) %MON time_tsnumber                =                     7
(PID.TID 0000.0001) %MON time_secondsf                =   1.6800000000000E+03
(PID.TID 0000.0001) %MON dynstat_eta_max              =   1.0035474937640E+00
(PID.TID 0000.0001) %MON dynstat_eta_min              =  -1.2321317955492E+00
(PID.TID 0000.0001) %MON dynstat_eta_mean             =  -2.2516835360612E-02
(PID.TID 0000.0001) %MON dynstat_eta_sd               =   2.0230337258902E-01
(PID.TID 0000.0001) %MON dynstat_eta_del2             =   2.4425257496094E-06
(PID.TID 0000.0001) %MON dynstat_uvel_max             =   8.8904489281975E-01
(PID.TID 0000.0001) %MON dynstat_uvel_min             =  -2.2410753569791E+00
(PID.TID 0000.0001) %MON dynstat_uvel_mean            =   4.8034303950122E-03
(PID.TID 0000.0001) %MON dynstat_uvel_sd              =   5.0194205521413E-02
(PID.TID 0000.0001) %MON dynstat_uvel_del2            =   4.4330379060453E-07
(PID.TID 0000.0001) %MON dynstat_vvel_max             =   1.2970422339539E+00
(PID.TID 0000.0001) %MON dynstat_vvel_min             =  -7.8484530479711E-01
(PID.TID 0000.0001) %MON dynstat_vvel_mean            =   4.0922449614444E-03
(PID.TID 0000.0001) %MON dynstat_vvel_sd              =   5.0907572493913E-02
(PID.TID 0000.0001) %MON dynstat_vvel_del2            =   4.7709025497242E-07
(PID.TID 0000.0001) %MON dynstat_wvel_max             =   3.6313288234132E-02
(PID.TID 0000.0001) %MON dynstat_wvel_min             =  -2.9057456014618E-02
(PID.TID 0000.0001) %MON dynstat_wvel_mean            =  -1.0388195733711E-05
(PID.TID 0000.0001) %MON dynstat_wvel_sd              =   5.8980526549545E-04
(PID.TID 0000.0001) %MON dynstat_wvel_del2            =   7.4937256145220E-08
(PID.TID 0000.0001) %MON dynstat_theta_max            =   2.6137505657297E+01
(PID.TID 0000.0001) %MON dynstat_theta_min            =   1.4688644940297E+00
(PID.TID 0000.0001) %MON dynstat_theta_mean           =   5.5098373483692E+00
(PID.TID 0000.0001) %MON dynstat_theta_sd             =   4.7733389440121E+00
(PID.TID 0000.0001) %MON dynstat_theta_del2           =   4.0159348451962E-06
(PID.TID 0000.0001) %MON dynstat_salt_max             =   3.9170727725889E+01
(PID.TID 0000.0001) %MON dynstat_salt_min             =   3.3090574478245E+01
(PID.TID 0000.0001) %MON dynstat_salt_mean            =   3.5173366745550E+01
(PID.TID 0000.0001) %MON dynstat_salt_sd              =   3.7891260864102E-01
(PID.TID 0000.0001) %MON dynstat_salt_del2            =   5.1056942841173E-07
(PID.TID 0000.0001) %MON dynstat_sst_max              =   2.6127460230087E+01
(PID.TID 0000.0001) %MON dynstat_sst_min              =   3.9862559791822E+00
(PID.TID 0000.0001) %MON dynstat_sst_mean             =   1.9638412481146E+01
(PID.TID 0000.0001) %MON dynstat_sst_sd               =   3.6364431305232E+00
(PID.TID 0000.0001) %MON dynstat_sst_del2             =   1.9118137855329E-05
(PID.TID 0000.0001) %MON dynstat_sss_max              =   3.7335296668845E+01
(PID.TID 0000.0001) %MON dynstat_sss_min              =   3.3090574478245E+01
(PID.TID 0000.0001) %MON dynstat_sss_mean             =   3.5868378670831E+01
(PID.TID 0000.0001) %MON dynstat_sss_sd               =   4.8736416873050E-01
(PID.TID 0000.0001) %MON dynstat_sss_del2             =   4.9544410750875E-06
(PID.TID 0000.0001) %MON forcing_qnet_max             =   1.0796237522558E+03
(PID.TID 0000.0001) %MON forcing_qnet_min             =  -1.7475268717876E+02
(PID.TID 0000.0001) %MON forcing_qnet_mean            =   3.2787911312515E+02
(PID.TID 0000.0001) %MON forcing_qnet_sd              =   2.1748296460107E+02
(PID.TID 0000.0001) %MON forcing_qnet_del2            =   1.1825002031676E-03
(PID.TID 0000.0001) %MON forcing_qsw_max              =   0.0000000000000E+00
(PID.TID 0000.0001) %MON forcing_qsw_min              =  -1.7400761936509E+01
(PID.TID 0000.0001) %MON forcing_qsw_mean             =  -5.7954555863123E-01
(PID.TID 0000.0001) %MON forcing_qsw_sd               =   1.8377188278794E+00
(PID.TID 0000.0001) %MON forcing_qsw_del2             =   5.9181925605964E-06
(PID.TID 0000.0001) %MON forcing_empmr_max            =   2.2716819766496E-04
(PID.TID 0000.0001) %MON forcing_empmr_min            =  -1.0373340744101E-03
(PID.TID 0000.0001) %MON forcing_empmr_mean           =   4.2246124098811E-05
(PID.TID 0000.0001) %MON forcing_empmr_sd             =   1.0738195759646E-04
(PID.TID 0000.0001) %MON forcing_empmr_del2           =   8.8815575660798E-10
(PID.TID 0000.0001) %MON forcing_fu_max               =   5.1909770418786E-01
(PID.TID 0000.0001) %MON forcing_fu_min               =  -3.1511417477697E-01
(PID.TID 0000.0001) %MON forcing_fu_mean              =   7.0854104298944E-02
(PID.TID 0000.0001) %MON forcing_fu_sd                =   1.4053715976402E-01
(PID.TID 0000.0001) %MON forcing_fu_del2              =   2.6910142454487E-07
(PID.TID 0000.0001) %MON forcing_fv_max               =   5.8023991334658E-01
(PID.TID 0000.0001) %MON forcing_fv_min               =  -1.7911704608407E-01
(PID.TID 0000.0001) %MON forcing_fv_mean              =   9.7902839616657E-02
(PID.TID 0000.0001) %MON forcing_fv_sd                =   1.3530590185094E-01
(PID.TID 0000.0001) %MON forcing_fv_del2              =   2.2791354831361E-07
(PID.TID 0000.0001) %MON trAdv_CFL_u_max              =   1.4159875393457E-01
(PID.TID 0000.0001) %MON trAdv_CFL_v_max              =   7.8692540640223E-02
(PID.TID 0000.0001) %MON trAdv_CFL_w_max              =   5.0869271999555E-01
(PID.TID 0000.0001) %MON advcfl_uvel_max              =   1.4164125590829E-01
(PID.TID 0000.0001) %MON advcfl_vvel_max              =   7.8692542046625E-02
(PID.TID 0000.0001) %MON advcfl_wvel_max              =   5.0474936557698E-01
(PID.TID 0000.0001) %MON advcfl_W_hf_max              =   5.0869271999555E-01
(PID.TID 0000.0001) %MON pe_b_mean                    =  -4.7840587825856E-04
(PID.TID 0000.0001) %MON ke_max                       =   2.2857188990891E+00
(PID.TID 0000.0001) %MON ke_mean                      =   2.5565865814939E-03
(PID.TID 0000.0001) %MON ke_vol                       =   4.5818637829946E+16
(PID.TID 0000.0001) %MON vort_r_min                   =  -5.0869590712380E-04
(PID.TID 0000.0001) %MON vort_r_max                   =   5.6251389183890E-04
(PID.TID 0000.0001) %MON vort_a_mean                  =   8.2147626679379E-05
(PID.TID 0000.0001) %MON vort_a_sd                    =   1.0133680326871E-05
(PID.TID 0000.0001) %MON vort_p_mean                  =   8.4848849111989E-05
(PID.TID 0000.0001) %MON vort_p_sd                    =   3.4980278693236E-05
(PID.TID 0000.0001) %MON surfExpan_theta_mean         =  -1.8292883481663E-04
(PID.TID 0000.0001) %MON surfExpan_salt_mean          =  -6.7053399734757E-04
(PID.TID 0000.0001) // =======================================================
(PID.TID 0000.0001) // End MONITOR dynamic field statistics
(PID.TID 0000.0001) // =======================================================
(PID.TID 0000.0001) // =======================================================
(PID.TID 0000.0001) // Begin OBCS MONITOR field statistics
(PID.TID 0000.0001) // =======================================================
(PID.TID 0000.0001) %MON obc_E_uVel_max               =   2.6346292306516E-01
(PID.TID 0000.0001) %MON obc_E_uVel_min               =  -2.2410753569791E+00
(PID.TID 0000.0001) %MON obc_E_uVel_mean              =   3.4788848859849E-03
(PID.TID 0000.0001) %MON obc_E_uVel_sd                =   4.4265589813559E-02
(PID.TID 0000.0001) %MON obc_E_uVel_Int               =   6.7191182567609E+07
(PID.TID 0000.0001) %MON obc_W_uVel_max               =   3.2305646818508E-01
(PID.TID 0000.0001) %MON obc_W_uVel_min               =  -6.9496280525210E-01
(PID.TID 0000.0001) %MON obc_W_uVel_mean              =  -5.5206818017658E-03
(PID.TID 0000.0001) %MON obc_W_uVel_sd                =   8.6716795627991E-02
(PID.TID 0000.0001) %MON obc_W_uVel_Int               =  -3.3618922468083E+07
(PID.TID 0000.0001) %MON obc_N_vVel_max               =   3.0284013602937E-01
(PID.TID 0000.0001) %MON obc_N_vVel_min               =  -1.0147331106821E-01
(PID.TID 0000.0001) %MON obc_N_vVel_mean              =   1.9509253949263E-02
(PID.TID 0000.0001) %MON obc_N_vVel_sd                =   4.0376383726148E-02
(PID.TID 0000.0001) %MON obc_N_vVel_Int               =   1.6047243112932E+08
(PID.TID 0000.0001) %MON obc_S_vVel_max               =   5.2779986531144E-02
(PID.TID 0000.0001) %MON obc_S_vVel_min               =  -8.9963453730775E-02
(PID.TID 0000.0001) %MON obc_S_vVel_mean              =   3.9199087994008E-03
(PID.TID 0000.0001) %MON obc_S_vVel_sd                =   1.1411723284307E-02
(PID.TID 0000.0001) %MON obc_S_vVel_Int               =   4.3624271587589E+07
(PID.TID 0000.0001) %MON obc_E_theta_max              =   2.5544222067351E+01
(PID.TID 0000.0001) %MON obc_E_theta_min              =   1.4632984148975E+00
(PID.TID 0000.0001) %MON obc_E_theta_mean             =   5.4563373026809E+00
(PID.TID 0000.0001) %MON obc_E_theta_sd               =   5.6195773800107E+00
(PID.TID 0000.0001) %MON obc_W_theta_max              =   1.5386110747048E+01
(PID.TID 0000.0001) %MON obc_W_theta_min              =   1.8895910704432E+00
(PID.TID 0000.0001) %MON obc_W_theta_mean             =   4.2051424854483E+00
(PID.TID 0000.0001) %MON obc_W_theta_sd               =   2.6437913673017E+00
(PID.TID 0000.0001) %MON obc_N_theta_max              =   1.6390244329854E+01
(PID.TID 0000.0001) %MON obc_N_theta_min              =   2.0877867407432E+00
(PID.TID 0000.0001) %MON obc_N_theta_mean             =   5.8650551264106E+00
(PID.TID 0000.0001) %MON obc_N_theta_sd               =   3.8421012045673E+00
(PID.TID 0000.0001) %MON obc_S_theta_max              =   2.3210770559692E+01
(PID.TID 0000.0001) %MON obc_S_theta_min              =   1.8976912755333E+00
(PID.TID 0000.0001) %MON obc_S_theta_mean             =   5.4651314446345E+00
(PID.TID 0000.0001) %MON obc_S_theta_sd               =   4.8645091364626E+00
(PID.TID 0000.0001) %MON obc_E_salt_max               =   3.7284737487800E+01
(PID.TID 0000.0001) %MON obc_E_salt_min               =   3.4844694679359E+01
(PID.TID 0000.0001) %MON obc_E_salt_mean              =   3.5160048626748E+01
(PID.TID 0000.0001) %MON obc_E_salt_sd                =   4.6599329474723E-01
(PID.TID 0000.0001) %MON obc_W_salt_max               =   3.5867260430084E+01
(PID.TID 0000.0001) %MON obc_W_salt_min               =   3.3295052588478E+01
(PID.TID 0000.0001) %MON obc_W_salt_mean              =   3.4957942836177E+01
(PID.TID 0000.0001) %MON obc_W_salt_sd                =   2.4692450545787E-01
(PID.TID 0000.0001) %MON obc_N_salt_max               =   3.5910864789416E+01
(PID.TID 0000.0001) %MON obc_N_salt_min               =   3.4917014931207E+01
(PID.TID 0000.0001) %MON obc_N_salt_mean              =   3.5230513880797E+01
(PID.TID 0000.0001) %MON obc_N_salt_sd                =   3.0056344931059E-01
(PID.TID 0000.0001) %MON obc_S_salt_max               =   3.7318298439933E+01
(PID.TID 0000.0001) %MON obc_S_salt_min               =   3.4884963758792E+01
(PID.TID 0000.0001) %MON obc_S_salt_mean              =   3.5182818251780E+01
(PID.TID 0000.0001) %MON obc_S_salt_sd                =   4.4106237281123E-01
(PID.TID 0000.0001) // =======================================================
(PID.TID 0000.0001) // End OBCS MONITOR field statistics
(PID.TID 0000.0001) // =======================================================
(PID.TID 0000.0001) // =======================================================
(PID.TID 0000.0001) // Begin MONITOR EXF statistics
(PID.TID 0000.0001) // =======================================================
(PID.TID 0000.0001) %MON exf_tsnumber                 =                     7
(PID.TID 0000.0001) %MON exf_time_sec                 =   1.6800000000000E+03
(PID.TID 0000.0001) %MON exf_ustress_max              =   5.1630859796038E-01
(PID.TID 0000.0001) %MON exf_ustress_min              =  -3.1694517848667E-01
(PID.TID 0000.0001) %MON exf_ustress_mean             =   7.0435178271662E-02
(PID.TID 0000.0001) %MON exf_ustress_sd               =   1.4035073196622E-01
(PID.TID 0000.0001) %MON exf_ustress_del2             =   2.9334087655590E-07
(PID.TID 0000.0001) %MON exf_vstress_max              =   5.7797993992783E-01
(PID.TID 0000.0001) %MON exf_vstress_min              =  -1.7851007579640E-01
(PID.TID 0000.0001) %MON exf_vstress_mean             =   9.7637481865115E-02
(PID.TID 0000.0001) %MON exf_vstress_sd               =   1.3506154517223E-01
(PID.TID 0000.0001) %MON exf_vstress_del2             =   2.5179127084467E-07
(PID.TID 0000.0001) %MON exf_hflux_max                =   1.0621154633185E+03
(PID.TID 0000.0001) %MON exf_hflux_min                =  -1.3216782672042E+02
(PID.TID 0000.0001) %MON exf_hflux_mean               =   3.2322412161801E+02
(PID.TID 0000.0001) %MON exf_hflux_sd                 =   2.1137248416171E+02
(PID.TID 0000.0001) %MON exf_hflux_del2               =   8.6426145119619E-02
(PID.TID 0000.0001) %MON exf_sflux_max                =   2.2672123473244E-07
(PID.TID 0000.0001) %MON exf_sflux_min                =  -1.0505710958640E-06
(PID.TID 0000.0001) %MON exf_sflux_mean               =   4.2063737694194E-08
(PID.TID 0000.0001) %MON exf_sflux_sd                 =   1.0788838474976E-07
(PID.TID 0000.0001) %MON exf_sflux_del2               =   2.3988736786837E-11
(PID.TID 0000.0001) %MON exf_uwind_max                =   1.5716433087300E+01
(PID.TID 0000.0001) %MON exf_uwind_min                =  -1.3118832227845E+01
(PID.TID 0000.0001) %MON exf_uwind_mean               =   2.9520406938281E+00
(PID.TID 0000.0001) %MON exf_uwind_sd                 =   6.7613358494147E+00
(PID.TID 0000.0001) %MON exf_uwind_del2               =   1.6372999455698E-03
(PID.TID 0000.0001) %MON exf_vwind_max                =   1.4905377707404E+01
(PID.TID 0000.0001) %MON exf_vwind_min                =  -1.0509700427652E+01
(PID.TID 0000.0001) %MON exf_vwind_mean               =   4.6258130865426E+00
(PID.TID 0000.0001) %MON exf_vwind_sd                 =   5.9620008848818E+00
(PID.TID 0000.0001) %MON exf_vwind_del2               =   1.6863586699671E-03
(PID.TID 0000.0001) %MON exf_wspeed_max               =   1.8363275622037E+01
(PID.TID 0000.0001) %MON exf_wspeed_min               =   4.6821645489710E-02
(PID.TID 0000.0001) %MON exf_wspeed_mean              =   9.9313319188764E+00
(PID.TID 0000.0001) %MON exf_wspeed_sd                =   3.5696574494853E+00
(PID.TID 0000.0001) %MON exf_wspeed_del2              =   2.3503757996015E-03
(PID.TID 0000.0001) %MON exf_atemp_max                =   2.9779047729971E+02
(PID.TID 0000.0001) %MON exf_atemp_min                =   2.7432176299037E+02
(PID.TID 0000.0001) %MON exf_atemp_mean               =   2.8987800669811E+02
(PID.TID 0000.0001) %MON exf_atemp_sd                 =   4.3111878712873E+00
(PID.TID 0000.0001) %MON exf_atemp_del2               =   3.7038895319432E-03
(PID.TID 0000.0001) %MON exf_aqh_max                  =   1.4804405958974E-02
(PID.TID 0000.0001) %MON exf_aqh_min                  =   3.0934277038929E-03
(PID.TID 0000.0001) %MON exf_aqh_mean                 =   9.5858458430423E-03
(PID.TID 0000.0001) %MON exf_aqh_sd                   =   2.2621522406476E-03
(PID.TID 0000.0001) %MON exf_aqh_del2                 =   2.1304868255210E-06
(PID.TID 0000.0001) %MON exf_lwflux_max               =   1.5715933862692E+02
(PID.TID 0000.0001) %MON exf_lwflux_min               =  -2.6151489117168E-01
(PID.TID 0000.0001) %MON exf_lwflux_mean              =   7.2751464604598E+01
(PID.TID 0000.0001) %MON exf_lwflux_sd                =   2.7898572082760E+01
(PID.TID 0000.0001) %MON exf_lwflux_del2              =   1.7285692781497E-02
(PID.TID 0000.0001) %MON exf_evap_max                 =   2.4908984704770E-07
(PID.TID 0000.0001) %MON exf_evap_min                 =  -4.1889120463472E-08
(PID.TID 0000.0001) %MON exf_evap_mean                =   7.9475009661218E-08
(PID.TID 0000.0001) %MON exf_evap_sd                  =   5.5840670456538E-08
(PID.TID 0000.0001) %MON exf_evap_del2                =   2.1501782587793E-11
(PID.TID 0000.0001) %MON exf_precip_max               =   1.0498759731617E-06
(PID.TID 0000.0001) %MON exf_precip_min               =   0.0000000000000E+00
(PID.TID 0000.0001) %MON exf_precip_mean              =   3.5822791770589E-08
(PID.TID 0000.0001) %MON exf_precip_sd                =   8.1672022873768E-08
(PID.TID 0000.0001) %MON exf_precip_del2              =   1.7949297411297E-11
(PID.TID 0000.0001) %MON exf_swflux_max               =   0.0000000000000E+00
(PID.TID 0000.0001) %MON exf_swflux_min               =  -1.6346170303993E+01
(PID.TID 0000.0001) %MON exf_swflux_mean              =  -5.4442158538086E-01
(PID.TID 0000.0001) %MON exf_swflux_sd                =   1.7263419292201E+00
(PID.TID 0000.0001) %MON exf_swflux_del2              =   3.7342873875830E-04
(PID.TID 0000.0001) %MON exf_swdown_max               =   1.8162411448882E+01
(PID.TID 0000.0001) %MON exf_swdown_min               =   0.0000000000000E+00
(PID.TID 0000.0001) %MON exf_swdown_mean              =   6.0491287264540E-01
(PID.TID 0000.0001) %MON exf_swdown_sd                =   1.9181576991334E+00
(PID.TID 0000.0001) %MON exf_swdown_del2              =   4.1492082084255E-04
(PID.TID 0000.0001) %MON exf_lwdown_max               =   4.0247539859679E+02
(PID.TID 0000.0001) %MON exf_lwdown_min               =   2.4892532131926E+02
(PID.TID 0000.0001) %MON exf_lwdown_mean              =   3.4205858334963E+02
(PID.TID 0000.0001) %MON exf_lwdown_sd                =   2.7527986873749E+01
(PID.TID 0000.0001) %MON exf_lwdown_del2              =   7.4681940130238E-02
(PID.TID 0000.0001) %MON exf_apressure_max            =   1.0123847325569E+05
(PID.TID 0000.0001) %MON exf_apressure_min            =   9.5389696433672E+04
(PID.TID 0000.0001) %MON exf_apressure_mean           =   9.9099937073202E+04
(PID.TID 0000.0001) %MON exf_apressure_sd             =   1.3669171713548E+03
(PID.TID 0000.0001) %MON exf_apressure_del2           =   2.1681655712764E+01
(PID.TID 0000.0001) %MON exf_runoff_max               =   4.4374822325994E-08
(PID.TID 0000.0001) %MON exf_runoff_min               =   0.0000000000000E+00
(PID.TID 0000.0001) %MON exf_runoff_mean              =   1.5884801964352E-09
(PID.TID 0000.0001) %MON exf_runoff_sd                =   5.3901974500338E-09
(PID.TID 0000.0001) %MON exf_runoff_del2              =   1.2741192460478E-12
(PID.TID 0000.0001) // =======================================================
(PID.TID 0000.0001) // End MONITOR EXF statistics
(PID.TID 0000.0001) // =======================================================
 cg2d: Sum(rhs),rhsMax =   8.11435732892374E+02  4.63492828375109E-02
(PID.TID 0000.0001)      cg2d_init_res =   1.50763984571021E+00
(PID.TID 0000.0001)      cg2d_iters(min,last) =      -1     316
(PID.TID 0000.0001)      cg2d_last_res =   6.50273493551565E-12
(PID.TID 0000.0001) // =======================================================
(PID.TID 0000.0001) // Begin MONITOR dynamic field statistics
(PID.TID 0000.0001) // =======================================================
(PID.TID 0000.0001) %MON time_tsnumber                =                     8
(PID.TID 0000.0001) %MON time_secondsf                =   1.9200000000000E+03
(PID.TID 0000.0001) %MON dynstat_eta_max              =   9.8033836755952E-01
(PID.TID 0000.0001) %MON dynstat_eta_min              =  -1.1319652069868E+00
(PID.TID 0000.0001) %MON dynstat_eta_mean             =  -2.7594454856555E-02
(PID.TID 0000.0001) %MON dynstat_eta_sd               =   2.1555748445555E-01
(PID.TID 0000.0001) %MON dynstat_eta_del2             =   2.4872240448460E-06
(PID.TID 0000.0001) %MON dynstat_uvel_max             =   8.9002157458926E-01
(PID.TID 0000.0001) %MON dynstat_uvel_min             =  -2.3036284870175E+00
(PID.TID 0000.0001) %MON dynstat_uvel_mean            =   5.1468387070823E-03
(PID.TID 0000.0001) %MON dynstat_uvel_sd              =   5.0285169125891E-02
(PID.TID 0000.0001) %MON dynstat_uvel_del2            =   4.5280904517491E-07
(PID.TID 0000.0001) %MON dynstat_vvel_max             =   1.2959124477399E+00
(PID.TID 0000.0001) %MON dynstat_vvel_min             =  -7.7222196096603E-01
(PID.TID 0000.0001) %MON dynstat_vvel_mean            =   4.2322644545327E-03
(PID.TID 0000.0001) %MON dynstat_vvel_sd              =   5.0924328124999E-02
(PID.TID 0000.0001) %MON dynstat_vvel_del2            =   4.8570461679757E-07
(PID.TID 0000.0001) %MON dynstat_wvel_max             =   3.5905199819449E-02
(PID.TID 0000.0001) %MON dynstat_wvel_min             =  -2.8193446717268E-02
(PID.TID 0000.0001) %MON dynstat_wvel_mean            =  -1.1561718777160E-05
(PID.TID 0000.0001) %MON dynstat_wvel_sd              =   5.9372767591009E-04
(PID.TID 0000.0001) %MON dynstat_wvel_del2            =   7.4915445080154E-08
(PID.TID 0000.0001) %MON dynstat_theta_max            =   2.6136711897321E+01
(PID.TID 0000.0001) %MON dynstat_theta_min            =   1.4688646550351E+00
(PID.TID 0000.0001) %MON dynstat_theta_mean           =   5.5098383647072E+00
(PID.TID 0000.0001) %MON dynstat_theta_sd             =   4.7733212890398E+00
(PID.TID 0000.0001) %MON dynstat_theta_del2           =   4.0192309648176E-06
(PID.TID 0000.0001) %MON dynstat_salt_max             =   3.9167446565386E+01
(PID.TID 0000.0001) %MON dynstat_salt_min             =   3.3090718714326E+01
(PID.TID 0000.0001) %MON dynstat_salt_mean            =   3.5173366374506E+01
(PID.TID 0000.0001) %MON dynstat_salt_sd              =   3.7891334977948E-01
(PID.TID 0000.0001) %MON dynstat_salt_del2            =   5.1439091002530E-07
(PID.TID 0000.0001) %MON dynstat_sst_max              =   2.6125849699485E+01
(PID.TID 0000.0001) %MON dynstat_sst_min              =   3.9708238508202E+00
(PID.TID 0000.0001) %MON dynstat_sst_mean             =   1.9637408500391E+01
(PID.TID 0000.0001) %MON dynstat_sst_sd               =   3.6362837694604E+00
(PID.TID 0000.0001) %MON dynstat_sst_del2             =   1.9137089213965E-05
(PID.TID 0000.0001) %MON dynstat_sss_max              =   3.7335335782064E+01
(PID.TID 0000.0001) %MON dynstat_sss_min              =   3.3090718714326E+01
(PID.TID 0000.0001) %MON dynstat_sss_mean             =   3.5868420335257E+01
(PID.TID 0000.0001) %MON dynstat_sss_sd               =   4.8738150120222E-01
(PID.TID 0000.0001) %MON dynstat_sss_del2             =   4.9460143141584E-06
(PID.TID 0000.0001) %MON forcing_qnet_max             =   1.0781235496639E+03
(PID.TID 0000.0001) %MON forcing_qnet_min             =  -1.7660403218780E+02
(PID.TID 0000.0001) %MON forcing_qnet_mean            =   3.2759293877039E+02
(PID.TID 0000.0001) %MON forcing_qnet_sd              =   2.1717122874633E+02
(PID.TID 0000.0001) %MON forcing_qnet_del2            =   1.1804513251409E-03
(PID.TID 0000.0001) %MON forcing_qsw_max              =   0.0000000000000E+00
(PID.TID 0000.0001) %MON forcing_qsw_min              =  -1.6346170303993E+01
(PID.TID 0000.0001) %MON forcing_qsw_mean             =  -5.4442158538086E-01
(PID.TID 0000.0001) %MON forcing_qsw_sd               =   1.7263419292201E+00
(PID.TID 0000.0001) %MON forcing_qsw_del2             =   5.5595142235906E-06
(PID.TID 0000.0001) %MON forcing_empmr_max            =   2.2672123473244E-04
(PID.TID 0000.0001) %MON forcing_empmr_min            =  -1.0505710958640E-03
(PID.TID 0000.0001) %MON forcing_empmr_mean           =   4.2063737694194E-05
(PID.TID 0000.0001) %MON forcing_empmr_sd             =   1.0788838474976E-04
(PID.TID 0000.0001) %MON forcing_empmr_del2           =   9.0034204866467E-10
(PID.TID 0000.0001) %MON forcing_fu_max               =   5.1628053856772E-01
(PID.TID 0000.0001) %MON forcing_fu_min               =  -3.1693891462391E-01
(PID.TID 0000.0001) %MON forcing_fu_mean              =   7.0542072111707E-02
(PID.TID 0000.0001) %MON forcing_fu_sd                =   1.4036161775682E-01
(PID.TID 0000.0001) %MON forcing_fu_del2              =   2.7094007228628E-07
(PID.TID 0000.0001) %MON forcing_fv_max               =   5.7794904293107E-01
(PID.TID 0000.0001) %MON forcing_fv_min               =  -1.7850595558379E-01
(PID.TID 0000.0001) %MON forcing_fv_mean              =   9.7664178883628E-02
(PID.TID 0000.0001) %MON forcing_fv_sd                =   1.3507065902590E-01
(PID.TID 0000.0001) %MON forcing_fv_del2              =   2.2799900285797E-07
(PID.TID 0000.0001) %MON trAdv_CFL_u_max              =   1.4555107318192E-01
(PID.TID 0000.0001) %MON trAdv_CFL_v_max              =   7.8623995649757E-02
(PID.TID 0000.0001) %MON trAdv_CFL_w_max              =   5.2221999434254E-01
(PID.TID 0000.0001) %MON advcfl_uvel_max              =   1.4559476147518E-01
(PID.TID 0000.0001) %MON advcfl_vvel_max              =   7.8623997054934E-02
(PID.TID 0000.0001) %MON advcfl_wvel_max              =   5.1817177733214E-01
(PID.TID 0000.0001) %MON advcfl_W_hf_max              =   5.2221999434254E-01
(PID.TID 0000.0001) %MON pe_b_mean                    =  -5.9109756223154E-04
(PID.TID 0000.0001) %MON ke_max                       =   2.4034763045209E+00
(PID.TID 0000.0001) %MON ke_mean                      =   2.5642498461919E-03
(PID.TID 0000.0001) %MON ke_vol                       =   4.5818637829946E+16
(PID.TID 0000.0001) %MON vort_r_min                   =  -5.1178683995815E-04
(PID.TID 0000.0001) %MON vort_r_max                   =   5.9814637781739E-04
(PID.TID 0000.0001) %MON vort_a_mean                  =   8.2147625888754E-05
(PID.TID 0000.0001) %MON vort_a_sd                    =   1.0137187848370E-05
(PID.TID 0000.0001) %MON vort_p_mean                  =   8.4848848295367E-05
(PID.TID 0000.0001) %MON vort_p_sd                    =   3.4981870607885E-05
(PID.TID 0000.0001) %MON surfExpan_theta_mean         =  -2.2722846511431E-04
(PID.TID 0000.0001) %MON surfExpan_salt_mean          =  -7.4049104637423E-04
(PID.TID 0000.0001) // =======================================================
(PID.TID 0000.0001) // End MONITOR dynamic field statistics
(PID.TID 0000.0001) // =======================================================
(PID.TID 0000.0001) // =======================================================
(PID.TID 0000.0001) // Begin OBCS MONITOR field statistics
(PID.TID 0000.0001) // =======================================================
(PID.TID 0000.0001) %MON obc_E_uVel_max               =   2.6356238598423E-01
(PID.TID 0000.0001) %MON obc_E_uVel_min               =  -2.3036284870175E+00
(PID.TID 0000.0001) %MON obc_E_uVel_mean              =   3.9749980996970E-03
(PID.TID 0000.0001) %MON obc_E_uVel_sd                =   4.4361965086089E-02
(PID.TID 0000.0001) %MON obc_E_uVel_Int               =   7.6773113160089E+07
(PID.TID 0000.0001) %MON obc_W_uVel_max               =   3.2328821090225E-01
(PID.TID 0000.0001) %MON obc_W_uVel_min               =  -6.9483277940571E-01
(PID.TID 0000.0001) %MON obc_W_uVel_mean              =  -5.3210457114999E-03
(PID.TID 0000.0001) %MON obc_W_uVel_sd                =   8.6600757942162E-02
(PID.TID 0000.0001) %MON obc_W_uVel_Int               =  -3.2403212075512E+07
(PID.TID 0000.0001) %MON obc_N_vVel_max               =   3.0311619614182E-01
(PID.TID 0000.0001) %MON obc_N_vVel_min               =  -1.0114135409257E-01
(PID.TID 0000.0001) %MON obc_N_vVel_mean              =   1.9668925137915E-02
(PID.TID 0000.0001) %MON obc_N_vVel_sd                =   4.0467916084141E-02
(PID.TID 0000.0001) %MON obc_N_vVel_Int               =   1.6178579882093E+08
(PID.TID 0000.0001) %MON obc_S_vVel_max               =   5.1880402895053E-02
(PID.TID 0000.0001) %MON obc_S_vVel_min               =  -9.0430557895943E-02
(PID.TID 0000.0001) %MON obc_S_vVel_mean              =   2.8628064393787E-03
(PID.TID 0000.0001) %MON obc_S_vVel_sd                =   1.1385652269168E-02
(PID.TID 0000.0001) %MON obc_S_vVel_Int               =   3.1859885524184E+07
(PID.TID 0000.0001) %MON obc_E_theta_max              =   2.5544119318571E+01
(PID.TID 0000.0001) %MON obc_E_theta_min              =   1.4632988111847E+00
(PID.TID 0000.0001) %MON obc_E_theta_mean             =   5.4563369646251E+00
(PID.TID 0000.0001) %MON obc_E_theta_sd               =   5.6195737664663E+00
(PID.TID 0000.0001) %MON obc_W_theta_max              =   1.5385990833437E+01
(PID.TID 0000.0001) %MON obc_W_theta_min              =   1.8895911195086E+00
(PID.TID 0000.0001) %MON obc_W_theta_mean             =   4.2051302649294E+00
(PID.TID 0000.0001) %MON obc_W_theta_sd               =   2.6437711238035E+00
(PID.TID 0000.0001) %MON obc_N_theta_max              =   1.6390156227667E+01
(PID.TID 0000.0001) %MON obc_N_theta_min              =   2.0877834655693E+00
(PID.TID 0000.0001) %MON obc_N_theta_mean             =   5.8650513228187E+00
(PID.TID 0000.0001) %MON obc_N_theta_sd               =   3.8420953130215E+00
(PID.TID 0000.0001) %MON obc_S_theta_max              =   2.3210686622600E+01
(PID.TID 0000.0001) %MON obc_S_theta_min              =   1.8976912647955E+00
(PID.TID 0000.0001) %MON obc_S_theta_mean             =   5.4651298291942E+00
(PID.TID 0000.0001) %MON obc_S_theta_sd               =   4.8645047235233E+00
(PID.TID 0000.0001) %MON obc_E_salt_max               =   3.7284725418282E+01
(PID.TID 0000.0001) %MON obc_E_salt_min               =   3.4844694731580E+01
(PID.TID 0000.0001) %MON obc_E_salt_mean              =   3.5160048696606E+01
(PID.TID 0000.0001) %MON obc_E_salt_sd                =   4.6599332433987E-01
(PID.TID 0000.0001) %MON obc_W_salt_max               =   3.5867260933140E+01
(PID.TID 0000.0001) %MON obc_W_salt_min               =   3.3295058091112E+01
(PID.TID 0000.0001) %MON obc_W_salt_mean              =   3.4957942310874E+01
(PID.TID 0000.0001) %MON obc_W_salt_sd                =   2.4692377103325E-01
(PID.TID 0000.0001) %MON obc_N_salt_max               =   3.5910864381053E+01
(PID.TID 0000.0001) %MON obc_N_salt_min               =   3.4917014917282E+01
(PID.TID 0000.0001) %MON obc_N_salt_mean              =   3.5230513754583E+01
(PID.TID 0000.0001) %MON obc_N_salt_sd                =   3.0056352813672E-01
(PID.TID 0000.0001) %MON obc_S_salt_max               =   3.7318291555549E+01
(PID.TID 0000.0001) %MON obc_S_salt_min               =   3.4884963754962E+01
(PID.TID 0000.0001) %MON obc_S_salt_mean              =   3.5182817933816E+01
(PID.TID 0000.0001) %MON obc_S_salt_sd                =   4.4106133588540E-01
(PID.TID 0000.0001) // =======================================================
(PID.TID 0000.0001) // End OBCS MONITOR field statistics
(PID.TID 0000.0001) // =======================================================
(PID.TID 0000.0001)  EXF_INTERP_READ: opening file: jra55/jra55_pres_tide_2003
(PID.TID 0000.0001) // =======================================================
(PID.TID 0000.0001) // Begin MONITOR EXF statistics
(PID.TID 0000.0001) // =======================================================
(PID.TID 0000.0001) %MON exf_tsnumber                 =                     8
(PID.TID 0000.0001) %MON exf_time_sec                 =   1.9200000000000E+03
(PID.TID 0000.0001) %MON exf_ustress_max              =   5.1368947397700E-01
(PID.TID 0000.0001) %MON exf_ustress_min              =  -3.1896202056095E-01
(PID.TID 0000.0001) %MON exf_ustress_mean             =   7.0131555964919E-02
(PID.TID 0000.0001) %MON exf_ustress_sd               =   1.4020278139668E-01
(PID.TID 0000.0001) %MON exf_ustress_del2             =   2.9613852232633E-07
(PID.TID 0000.0001) %MON exf_vstress_max              =   5.7578340923194E-01
(PID.TID 0000.0001) %MON exf_vstress_min              =  -1.7793887601024E-01
(PID.TID 0000.0001) %MON exf_vstress_mean             =   9.7408344013891E-02
(PID.TID 0000.0001) %MON exf_vstress_sd               =   1.3485082145611E-01
(PID.TID 0000.0001) %MON exf_vstress_del2             =   2.5168752121877E-07
(PID.TID 0000.0001) %MON exf_hflux_max                =   1.0607245797357E+03
(PID.TID 0000.0001) %MON exf_hflux_min                =  -1.3138144081659E+02
(PID.TID 0000.0001) %MON exf_hflux_mean               =   3.2297138512661E+02
(PID.TID 0000.0001) %MON exf_hflux_sd                 =   2.1106987489316E+02
(PID.TID 0000.0001) %MON exf_hflux_del2               =   8.6330761396040E-02
(PID.TID 0000.0001) %MON exf_sflux_max                =   2.2628905912973E-07
(PID.TID 0000.0001) %MON exf_sflux_min                =  -1.0638358808647E-06
(PID.TID 0000.0001) %MON exf_sflux_mean               =   4.1886907212885E-08
(PID.TID 0000.0001) %MON exf_sflux_sd                 =   1.0842308101028E-07
(PID.TID 0000.0001) %MON exf_sflux_del2               =   2.4062707256536E-11
(PID.TID 0000.0001) %MON exf_uwind_max                =   1.5662890351882E+01
(PID.TID 0000.0001) %MON exf_uwind_min                =  -1.3156102847310E+01
(PID.TID 0000.0001) %MON exf_uwind_mean               =   2.9431791618024E+00
(PID.TID 0000.0001) %MON exf_uwind_sd                 =   6.7649434735404E+00
(PID.TID 0000.0001) %MON exf_uwind_del2               =   1.6372091581297E-03
(PID.TID 0000.0001) %MON exf_vwind_max                =   1.4880468609479E+01
(PID.TID 0000.0001) %MON exf_vwind_min                =  -1.0490773936174E+01
(PID.TID 0000.0001) %MON exf_vwind_mean               =   4.6193658035399E+00
(PID.TID 0000.0001) %MON exf_vwind_sd                 =   5.9564427777694E+00
(PID.TID 0000.0001) %MON exf_vwind_del2               =   1.6847338780499E-03
(PID.TID 0000.0001) %MON exf_wspeed_max               =   1.8347454007465E+01
(PID.TID 0000.0001) %MON exf_wspeed_min               =   1.0931380319595E-02
(PID.TID 0000.0001) %MON exf_wspeed_mean              =   9.9259679464149E+00
(PID.TID 0000.0001) %MON exf_wspeed_sd                =   3.5664653506187E+00
(PID.TID 0000.0001) %MON exf_wspeed_del2              =   2.3491478827987E-03
(PID.TID 0000.0001) %MON exf_atemp_max                =   2.9779002327112E+02
(PID.TID 0000.0001) %MON exf_atemp_min                =   2.7433289014353E+02
(PID.TID 0000.0001) %MON exf_atemp_mean               =   2.8987808021187E+02
(PID.TID 0000.0001) %MON exf_atemp_sd                 =   4.3078589407007E+00
(PID.TID 0000.0001) %MON exf_atemp_del2               =   3.7038706720835E-03
(PID.TID 0000.0001) %MON exf_aqh_max                  =   1.4826010620812E-02
(PID.TID 0000.0001) %MON exf_aqh_min                  =   3.1009747922444E-03
(PID.TID 0000.0001) %MON exf_aqh_mean                 =   9.5854626610032E-03
(PID.TID 0000.0001) %MON exf_aqh_sd                   =   2.2599133734989E-03
(PID.TID 0000.0001) %MON exf_aqh_del2                 =   2.1303573821982E-06
(PID.TID 0000.0001) %MON exf_lwflux_max               =   1.5694812867016E+02
(PID.TID 0000.0001) %MON exf_lwflux_min               =  -9.2374386748275E-01
(PID.TID 0000.0001) %MON exf_lwflux_mean              =   7.2744936739996E+01
(PID.TID 0000.0001) %MON exf_lwflux_sd                =   2.7924446970549E+01
(PID.TID 0000.0001) %MON exf_lwflux_del2              =   1.7285114026574E-02
(PID.TID 0000.0001) %MON exf_evap_max                 =   2.4877545121170E-07
(PID.TID 0000.0001) %MON exf_evap_min                 =  -4.1747190134376E-08
(PID.TID 0000.0001) %MON exf_evap_mean                =   7.9393037405451E-08
(PID.TID 0000.0001) %MON exf_evap_sd                  =   5.5749591706172E-08
(PID.TID 0000.0001) %MON exf_evap_del2                =   2.1473913762156E-11
(PID.TID 0000.0001) %MON exf_precip_max               =   1.0629862827250E-06
(PID.TID 0000.0001) %MON exf_precip_min               =   0.0000000000000E+00
(PID.TID 0000.0001) %MON exf_precip_mean              =   3.5917649996130E-08
(PID.TID 0000.0001) %MON exf_precip_sd                =   8.2300616080669E-08
(PID.TID 0000.0001) %MON exf_precip_del2              =   1.8067342833174E-11
(PID.TID 0000.0001) %MON exf_swflux_max               =   0.0000000000000E+00
(PID.TID 0000.0001) %MON exf_swflux_min               =  -1.5291578671478E+01
(PID.TID 0000.0001) %MON exf_swflux_mean              =  -5.0929761213048E-01
(PID.TID 0000.0001) %MON exf_swflux_sd                =   1.6149650305607E+00
(PID.TID 0000.0001) %MON exf_swflux_del2              =   3.4933656206421E-04
(PID.TID 0000.0001) %MON exf_swdown_max               =   1.6990642968309E+01
(PID.TID 0000.0001) %MON exf_swdown_min               =   0.0000000000000E+00
(PID.TID 0000.0001) %MON exf_swdown_mean              =   5.6588623570053E-01
(PID.TID 0000.0001) %MON exf_swdown_sd                =   1.7944055895119E+00
(PID.TID 0000.0001) %MON exf_swdown_del2              =   3.8815173562691E-04
(PID.TID 0000.0001) %MON exf_lwdown_max               =   4.0257739233115E+02
(PID.TID 0000.0001) %MON exf_lwdown_min               =   2.4886539005357E+02
(PID.TID 0000.0001) %MON exf_lwdown_mean              =   3.4205956143069E+02
(PID.TID 0000.0001) %MON exf_lwdown_sd                =   2.7537820739356E+01
(PID.TID 0000.0001) %MON exf_lwdown_del2              =   7.4682726765670E-02
(PID.TID 0000.0001) %MON exf_apressure_max            =   1.0116019423773E+05
(PID.TID 0000.0001) %MON exf_apressure_min            =   9.5423510469966E+04
(PID.TID 0000.0001) %MON exf_apressure_mean           =   9.9065482214864E+04
(PID.TID 0000.0001) %MON exf_apressure_sd             =   1.3425021377773E+03
(PID.TID 0000.0001) %MON exf_apressure_del2           =   2.1674160954407E+01
(PID.TID 0000.0001) %MON exf_runoff_max               =   4.4374822325994E-08
(PID.TID 0000.0001) %MON exf_runoff_min               =   0.0000000000000E+00
(PID.TID 0000.0001) %MON exf_runoff_mean              =   1.5884801964352E-09
(PID.TID 0000.0001) %MON exf_runoff_sd                =   5.3901974500338E-09
(PID.TID 0000.0001) %MON exf_runoff_del2              =   1.2741192460478E-12
(PID.TID 0000.0001) // =======================================================
(PID.TID 0000.0001) // End MONITOR EXF statistics
(PID.TID 0000.0001) // =======================================================
 cg2d: Sum(rhs),rhsMax =   9.73956240969725E+02  4.19503286647538E-02
(PID.TID 0000.0001)      cg2d_init_res =   1.60815541808195E+00
(PID.TID 0000.0001)      cg2d_iters(min,last) =      -1     315
(PID.TID 0000.0001)      cg2d_last_res =   6.89733726138737E-12
(PID.TID 0000.0001) // =======================================================
(PID.TID 0000.0001) // Begin MONITOR dynamic field statistics
(PID.TID 0000.0001) // =======================================================
(PID.TID 0000.0001) %MON time_tsnumber                =                     9
(PID.TID 0000.0001) %MON time_secondsf                =   2.1600000000000E+03
(PID.TID 0000.0001) %MON dynstat_eta_max              =   9.7015916781368E-01
(PID.TID 0000.0001) %MON dynstat_eta_min              =  -1.2370251610096E+00
(PID.TID 0000.0001) %MON dynstat_eta_mean             =  -3.3121281740823E-02
(PID.TID 0000.0001) %MON dynstat_eta_sd               =   2.2786048324918E-01
(PID.TID 0000.0001) %MON dynstat_eta_del2             =   2.4727865672124E-06
(PID.TID 0000.0001) %MON dynstat_uvel_max             =   8.9055777793026E-01
(PID.TID 0000.0001) %MON dynstat_uvel_min             =  -2.3657233006407E+00
(PID.TID 0000.0001) %MON dynstat_uvel_mean            =   5.4668549313871E-03
(PID.TID 0000.0001) %MON dynstat_uvel_sd              =   5.0380540739707E-02
(PID.TID 0000.0001) %MON dynstat_uvel_del2            =   4.6272288094839E-07
(PID.TID 0000.0001) %MON dynstat_vvel_max             =   1.2930719730553E+00
(PID.TID 0000.0001) %MON dynstat_vvel_min             =  -7.5673889472572E-01
(PID.TID 0000.0001) %MON dynstat_vvel_mean            =   4.3435461156018E-03
(PID.TID 0000.0001) %MON dynstat_vvel_sd              =   5.0930726815791E-02
(PID.TID 0000.0001) %MON dynstat_vvel_del2            =   4.9485580342710E-07
(PID.TID 0000.0001) %MON dynstat_wvel_max             =   3.5475228832899E-02
(PID.TID 0000.0001) %MON dynstat_wvel_min             =  -2.9017420852804E-02
(PID.TID 0000.0001) %MON dynstat_wvel_mean            =  -1.2721113095525E-05
(PID.TID 0000.0001) %MON dynstat_wvel_sd              =   5.9820224808304E-04
(PID.TID 0000.0001) %MON dynstat_wvel_del2            =   7.5444105761828E-08
(PID.TID 0000.0001) %MON dynstat_theta_max            =   2.6135608970661E+01
(PID.TID 0000.0001) %MON dynstat_theta_min            =   1.4688648245221E+00
(PID.TID 0000.0001) %MON dynstat_theta_mean           =   5.5098414224896E+00
(PID.TID 0000.0001) %MON dynstat_theta_sd             =   4.7733066613178E+00
(PID.TID 0000.0001) %MON dynstat_theta_del2           =   4.0224231844242E-06
(PID.TID 0000.0001) %MON dynstat_salt_max             =   3.9163942987785E+01
(PID.TID 0000.0001) %MON dynstat_salt_min             =   3.3090862483994E+01
(PID.TID 0000.0001) %MON dynstat_salt_mean            =   3.5173366182663E+01
(PID.TID 0000.0001) %MON dynstat_salt_sd              =   3.7891429795133E-01
(PID.TID 0000.0001) %MON dynstat_salt_del2            =   5.1806768425093E-07
(PID.TID 0000.0001) %MON dynstat_sst_max              =   2.6124232257840E+01
(PID.TID 0000.0001) %MON dynstat_sst_min              =   3.9552566185704E+00
(PID.TID 0000.0001) %MON dynstat_sst_mean             =   1.9636473887053E+01
(PID.TID 0000.0001) %MON dynstat_sst_sd               =   3.6361389272411E+00
(PID.TID 0000.0001) %MON dynstat_sst_del2             =   1.9159771983511E-05
(PID.TID 0000.0001) %MON dynstat_sss_max              =   3.7335380151156E+01
(PID.TID 0000.0001) %MON dynstat_sss_min              =   3.3090862483994E+01
(PID.TID 0000.0001) %MON dynstat_sss_mean             =   3.5868459253839E+01
(PID.TID 0000.0001) %MON dynstat_sss_sd               =   4.8739766020905E-01
(PID.TID 0000.0001) %MON dynstat_sss_del2             =   4.9381381912738E-06
(PID.TID 0000.0001) %MON forcing_qnet_max             =   1.0766872857625E+03
(PID.TID 0000.0001) %MON forcing_qnet_min             =  -1.7845884877160E+02
(PID.TID 0000.0001) %MON forcing_qnet_mean            =   3.2732616514299E+02
(PID.TID 0000.0001) %MON forcing_qnet_sd              =   2.1687816928043E+02
(PID.TID 0000.0001) %MON forcing_qnet_del2            =   1.1821991796777E-03
(PID.TID 0000.0001) %MON forcing_qsw_max              =   0.0000000000000E+00
(PID.TID 0000.0001) %MON forcing_qsw_min              =  -1.5291578671478E+01
(PID.TID 0000.0001) %MON forcing_qsw_mean             =  -5.0929761213048E-01
(PID.TID 0000.0001) %MON forcing_qsw_sd               =   1.6149650305607E+00
(PID.TID 0000.0001) %MON forcing_qsw_del2             =   5.2008358865847E-06
(PID.TID 0000.0001) %MON forcing_empmr_max            =   2.2628905912973E-04
(PID.TID 0000.0001) %MON forcing_empmr_min            =  -1.0638358808647E-03
(PID.TID 0000.0001) %MON forcing_empmr_mean           =   4.1886907212885E-05
(PID.TID 0000.0001) %MON forcing_empmr_sd             =   1.0842308101028E-04
(PID.TID 0000.0001) %MON forcing_empmr_del2           =   9.1325450668066E-10
(PID.TID 0000.0001) %MON forcing_fu_max               =   5.1366508007655E-01
(PID.TID 0000.0001) %MON forcing_fu_min               =  -3.1894046069815E-01
(PID.TID 0000.0001) %MON forcing_fu_mean              =   7.0237918654470E-02
(PID.TID 0000.0001) %MON forcing_fu_sd                =   1.4021340639575E-01
(PID.TID 0000.0001) %MON forcing_fu_del2              =   2.7346921386640E-07
(PID.TID 0000.0001) %MON forcing_fv_max               =   5.7574531568767E-01
(PID.TID 0000.0001) %MON forcing_fv_min               =  -1.7793825664401E-01
(PID.TID 0000.0001) %MON forcing_fv_mean              =   9.7434767390517E-02
(PID.TID 0000.0001) %MON forcing_fv_sd                =   1.3485993152754E-01
(PID.TID 0000.0001) %MON forcing_fv_del2              =   2.2796990147406E-07
(PID.TID 0000.0001) %MON trAdv_CFL_u_max              =   1.4947443444127E-01
(PID.TID 0000.0001) %MON trAdv_CFL_v_max              =   7.8451661886286E-02
(PID.TID 0000.0001) %MON trAdv_CFL_w_max              =   5.1706493744126E-01
(PID.TID 0000.0001) %MON advcfl_uvel_max              =   1.4951930036210E-01
(PID.TID 0000.0001) %MON advcfl_vvel_max              =   7.8451663288382E-02
(PID.TID 0000.0001) %MON advcfl_wvel_max              =   5.1305668211225E-01
(PID.TID 0000.0001) %MON advcfl_W_hf_max              =   5.1706493744126E-01
(PID.TID 0000.0001) %MON pe_b_mean                    =  -7.1451035434975E-04
(PID.TID 0000.0001) %MON ke_max                       =   2.5246687226130E+00
(PID.TID 0000.0001) %MON ke_mean                      =   2.5715027950346E-03
(PID.TID 0000.0001) %MON ke_vol                       =   4.5818637829946E+16
(PID.TID 0000.0001) %MON vort_r_min                   =  -5.1367968574069E-04
(PID.TID 0000.0001) %MON vort_r_max                   =   6.4032477627271E-04
(PID.TID 0000.0001) %MON vort_a_mean                  =   8.2147625089423E-05
(PID.TID 0000.0001) %MON vort_a_sd                    =   1.0140805686634E-05
(PID.TID 0000.0001) %MON vort_p_mean                  =   8.4848847469751E-05
(PID.TID 0000.0001) %MON vort_p_sd                    =   3.4984149854397E-05
(PID.TID 0000.0001) %MON surfExpan_theta_mean         =  -2.7197408505673E-04
(PID.TID 0000.0001) %MON surfExpan_salt_mean          =  -8.0943261755912E-04
(PID.TID 0000.0001) // =======================================================
(PID.TID 0000.0001) // End MONITOR dynamic field statistics
(PID.TID 0000.0001) // =======================================================
(PID.TID 0000.0001) // =======================================================
(PID.TID 0000.0001) // Begin OBCS MONITOR field statistics
(PID.TID 0000.0001) // =======================================================
(PID.TID 0000.0001) %MON obc_E_uVel_max               =   2.6365433631124E-01
(PID.TID 0000.0001) %MON obc_E_uVel_min               =  -2.3657233006407E+00
(PID.TID 0000.0001) %MON obc_E_uVel_mean              =   4.4654495456835E-03
(PID.TID 0000.0001) %MON obc_E_uVel_sd                =   4.4461939822891E-02
(PID.TID 0000.0001) %MON obc_E_uVel_Int               =   8.6245692370913E+07
(PID.TID 0000.0001) %MON obc_W_uVel_max               =   3.2354238518164E-01
(PID.TID 0000.0001) %MON obc_W_uVel_min               =  -6.9469132651040E-01
(PID.TID 0000.0001) %MON obc_W_uVel_mean              =  -5.1164559509236E-03
(PID.TID 0000.0001) %MON obc_W_uVel_sd                =   8.6487423367429E-02
(PID.TID 0000.0001) %MON obc_W_uVel_Int               =  -3.1157335651992E+07
(PID.TID 0000.0001) %MON obc_N_vVel_max               =   3.0334207843346E-01
(PID.TID 0000.0001) %MON obc_N_vVel_min               =  -1.0083031891361E-01
(PID.TID 0000.0001) %MON obc_N_vVel_mean              =   1.9806961260499E-02
(PID.TID 0000.0001) %MON obc_N_vVel_sd                =   4.0550510916228E-02
(PID.TID 0000.0001) %MON obc_N_vVel_Int               =   1.6292120831595E+08
(PID.TID 0000.0001) %MON obc_S_vVel_max               =   5.0968092609536E-02
(PID.TID 0000.0001) %MON obc_S_vVel_min               =  -9.0893583195180E-02
(PID.TID 0000.0001) %MON obc_S_vVel_mean              =   1.8033296991296E-03
(PID.TID 0000.0001) %MON obc_S_vVel_sd                =   1.1358274515237E-02
(PID.TID 0000.0001) %MON obc_S_vVel_Int               =   2.0069075221551E+07
(PID.TID 0000.0001) %MON obc_E_theta_max              =   2.5544016569792E+01
(PID.TID 0000.0001) %MON obc_E_theta_min              =   1.4632992074720E+00
(PID.TID 0000.0001) %MON obc_E_theta_mean             =   5.4563366265693E+00
(PID.TID 0000.0001) %MON obc_E_theta_sd               =   5.6195701529637E+00
(PID.TID 0000.0001) %MON obc_W_theta_max              =   1.5385870919825E+01
(PID.TID 0000.0001) %MON obc_W_theta_min              =   1.8895911685740E+00
(PID.TID 0000.0001) %MON obc_W_theta_mean             =   4.2051180444105E+00
(PID.TID 0000.0001) %MON obc_W_theta_sd               =   2.6437508807880E+00
(PID.TID 0000.0001) %MON obc_N_theta_max              =   1.6390068125480E+01
(PID.TID 0000.0001) %MON obc_N_theta_min              =   2.0877801903954E+00
(PID.TID 0000.0001) %MON obc_N_theta_mean             =   5.8650475192267E+00
(PID.TID 0000.0001) %MON obc_N_theta_sd               =   3.8420894215485E+00
(PID.TID 0000.0001) %MON obc_S_theta_max              =   2.3210602685509E+01
(PID.TID 0000.0001) %MON obc_S_theta_min              =   1.8976912540577E+00
(PID.TID 0000.0001) %MON obc_S_theta_mean             =   5.4651282137538E+00
(PID.TID 0000.0001) %MON obc_S_theta_sd               =   4.8645003106083E+00
(PID.TID 0000.0001) %MON obc_E_salt_max               =   3.7284713348765E+01
(PID.TID 0000.0001) %MON obc_E_salt_min               =   3.4844694783800E+01
(PID.TID 0000.0001) %MON obc_E_salt_mean              =   3.5160048766464E+01
(PID.TID 0000.0001) %MON obc_E_salt_sd                =   4.6599335393348E-01
(PID.TID 0000.0001) %MON obc_W_salt_max               =   3.5867261436196E+01
(PID.TID 0000.0001) %MON obc_W_salt_min               =   3.3295063593745E+01
(PID.TID 0000.0001) %MON obc_W_salt_mean              =   3.4957941785571E+01
(PID.TID 0000.0001) %MON obc_W_salt_sd                =   2.4692303667643E-01
(PID.TID 0000.0001) %MON obc_N_salt_max               =   3.5910863972689E+01
(PID.TID 0000.0001) %MON obc_N_salt_min               =   3.4917014903356E+01
(PID.TID 0000.0001) %MON obc_N_salt_mean              =   3.5230513628368E+01
(PID.TID 0000.0001) %MON obc_N_salt_sd                =   3.0056360698063E-01
(PID.TID 0000.0001) %MON obc_S_salt_max               =   3.7318284671165E+01
(PID.TID 0000.0001) %MON obc_S_salt_min               =   3.4884963751133E+01
(PID.TID 0000.0001) %MON obc_S_salt_mean              =   3.5182817615851E+01
(PID.TID 0000.0001) %MON obc_S_salt_sd                =   4.4106029896541E-01
(PID.TID 0000.0001) // =======================================================
(PID.TID 0000.0001) // End OBCS MONITOR field statistics
(PID.TID 0000.0001) // =======================================================
(PID.TID 0000.0001) // =======================================================
(PID.TID 0000.0001) // Begin MONITOR EXF statistics
(PID.TID 0000.0001) // =======================================================
(PID.TID 0000.0001) %MON exf_tsnumber                 =                     9
(PID.TID 0000.0001) %MON exf_time_sec                 =   2.1600000000000E+03
(PID.TID 0000.0001) %MON exf_ustress_max              =   5.1139506162334E-01
(PID.TID 0000.0001) %MON exf_ustress_min              =  -3.2127515461604E-01
(PID.TID 0000.0001) %MON exf_ustress_mean             =   6.9834847258705E-02
(PID.TID 0000.0001) %MON exf_ustress_sd               =   1.4007967105820E-01
(PID.TID 0000.0001) %MON exf_ustress_del2             =   2.9909371984374E-07
(PID.TID 0000.0001) %MON exf_vstress_max              =   5.7364928105666E-01
(PID.TID 0000.0001) %MON exf_vstress_min              =  -1.7745365887791E-01
(PID.TID 0000.0001) %MON exf_vstress_mean             =   9.7187346045662E-02
(PID.TID 0000.0001) %MON exf_vstress_sd               =   1.3466241097449E-01
(PID.TID 0000.0001) %MON exf_vstress_del2             =   2.5162944746986E-07
(PID.TID 0000.0001) %MON exf_hflux_max                =   1.0593891941833E+03
(PID.TID 0000.0001) %MON exf_hflux_min                =  -1.3059936358015E+02
(PID.TID 0000.0001) %MON exf_hflux_mean               =   3.2273552272937E+02
(PID.TID 0000.0001) %MON exf_hflux_sd                 =   2.1078283108195E+02
(PID.TID 0000.0001) %MON exf_hflux_del2               =   8.6241092380135E-02
(PID.TID 0000.0001) %MON exf_sflux_max                =   2.2586767324244E-07
(PID.TID 0000.0001) %MON exf_sflux_min                =  -1.0771268921893E-06
(PID.TID 0000.0001) %MON exf_sflux_mean               =   4.1714966509982E-08
(PID.TID 0000.0001) %MON exf_sflux_sd                 =   1.0898529200397E-07
(PID.TID 0000.0001) %MON exf_sflux_del2               =   2.4142590536076E-11
(PID.TID 0000.0001) %MON exf_uwind_max                =   1.5610576268048E+01
(PID.TID 0000.0001) %MON exf_uwind_min                =  -1.3194048146958E+01
(PID.TID 0000.0001) %MON exf_uwind_mean               =   2.9344036712191E+00
(PID.TID 0000.0001) %MON exf_uwind_sd                 =   6.7688546544654E+00
(PID.TID 0000.0001) %MON exf_uwind_del2               =   1.6371968844838E-03
(PID.TID 0000.0001) %MON exf_vwind_max                =   1.4856814911582E+01
(PID.TID 0000.0001) %MON exf_vwind_min                =  -1.0472451964101E+01
(PID.TID 0000.0001) %MON exf_vwind_mean               =   4.6129955730930E+00
(PID.TID 0000.0001) %MON exf_vwind_sd                 =   5.9512980801219E+00
(PID.TID 0000.0001) %MON exf_vwind_del2               =   1.6832044542921E-03
(PID.TID 0000.0001) %MON exf_wspeed_max               =   1.8332242416806E+01
(PID.TID 0000.0001) %MON exf_wspeed_min               =   5.6311071666564E-02
(PID.TID 0000.0001) %MON exf_wspeed_mean              =   9.9210208048324E+00
(PID.TID 0000.0001) %MON exf_wspeed_sd                =   3.5635854732084E+00
(PID.TID 0000.0001) %MON exf_wspeed_del2              =   2.3480433935026E-03
(PID.TID 0000.0001) %MON exf_atemp_max                =   2.9778956924253E+02
(PID.TID 0000.0001) %MON exf_atemp_min                =   2.7434401729668E+02
(PID.TID 0000.0001) %MON exf_atemp_mean               =   2.8987815372564E+02
(PID.TID 0000.0001) %MON exf_atemp_sd                 =   4.3045638697868E+00
(PID.TID 0000.0001) %MON exf_atemp_del2               =   3.7038539933484E-03
(PID.TID 0000.0001) %MON exf_aqh_max                  =   1.4847615282650E-02
(PID.TID 0000.0001) %MON exf_aqh_min                  =   3.1085218805959E-03
(PID.TID 0000.0001) %MON exf_aqh_mean                 =   9.5850794789641E-03
(PID.TID 0000.0001) %MON exf_aqh_sd                   =   2.2577222241931E-03
(PID.TID 0000.0001) %MON exf_aqh_del2                 =   2.1302305891765E-06
(PID.TID 0000.0001) %MON exf_lwflux_max               =   1.5673720051930E+02
(PID.TID 0000.0001) %MON exf_lwflux_min               =  -1.5859394594977E+00
(PID.TID 0000.0001) %MON exf_lwflux_mean              =   7.2738795115498E+01
(PID.TID 0000.0001) %MON exf_lwflux_sd                =   2.7953379928757E+01
(PID.TID 0000.0001) %MON exf_lwflux_del2              =   1.7284878303382E-02
(PID.TID 0000.0001) %MON exf_evap_max                 =   2.4847513430288E-07
(PID.TID 0000.0001) %MON exf_evap_min                 =  -4.1602937384772E-08
(PID.TID 0000.0001) %MON exf_evap_mean                =   7.9315954928088E-08
(PID.TID 0000.0001) %MON exf_evap_sd                  =   5.5662877725066E-08
(PID.TID 0000.0001) %MON exf_evap_del2                =   2.1447656784784E-11
(PID.TID 0000.0001) %MON exf_precip_max               =   1.0760965922883E-06
(PID.TID 0000.0001) %MON exf_precip_min               =   0.0000000000000E+00
(PID.TID 0000.0001) %MON exf_precip_mean              =   3.6012508221671E-08
(PID.TID 0000.0001) %MON exf_precip_sd                =   8.2959461798874E-08
(PID.TID 0000.0001) %MON exf_precip_del2              =   1.8191233847753E-11
(PID.TID 0000.0001) %MON exf_swflux_max               =   0.0000000000000E+00
(PID.TID 0000.0001) %MON exf_swflux_min               =  -1.4236987038962E+01
(PID.TID 0000.0001) %MON exf_swflux_mean              =  -4.7417363888010E-01
(PID.TID 0000.0001) %MON exf_swflux_sd                =   1.5035881319013E+00
(PID.TID 0000.0001) %MON exf_swflux_del2              =   3.2524438537013E-04
(PID.TID 0000.0001) %MON exf_swdown_max               =   1.5818874487736E+01
(PID.TID 0000.0001) %MON exf_swdown_min               =   0.0000000000000E+00
(PID.TID 0000.0001) %MON exf_swdown_mean              =   5.2685959875567E-01
(PID.TID 0000.0001) %MON exf_swdown_sd                =   1.6706534798904E+00
(PID.TID 0000.0001) %MON exf_swdown_del2              =   3.6138265041126E-04
(PID.TID 0000.0001) %MON exf_lwdown_max               =   4.0267938606550E+02
(PID.TID 0000.0001) %MON exf_lwdown_min               =   2.4880545878788E+02
(PID.TID 0000.0001) %MON exf_lwdown_mean              =   3.4206053951175E+02
(PID.TID 0000.0001) %MON exf_lwdown_sd                =   2.7550838469439E+01
(PID.TID 0000.0001) %MON exf_lwdown_del2              =   7.4683575952591E-02
(PID.TID 0000.0001) %MON exf_apressure_max            =   1.0108420953238E+05
(PID.TID 0000.0001) %MON exf_apressure_min            =   9.5473697043773E+04
(PID.TID 0000.0001) %MON exf_apressure_mean           =   9.9042897926528E+04
(PID.TID 0000.0001) %MON exf_apressure_sd             =   1.3139308883721E+03
(PID.TID 0000.0001) %MON exf_apressure_del2           =   2.1669256872678E+01
(PID.TID 0000.0001) %MON exf_runoff_max               =   4.4374822325994E-08
(PID.TID 0000.0001) %MON exf_runoff_min               =   0.0000000000000E+00
(PID.TID 0000.0001) %MON exf_runoff_mean              =   1.5884801964352E-09
(PID.TID 0000.0001) %MON exf_runoff_sd                =   5.3901974500338E-09
(PID.TID 0000.0001) %MON exf_runoff_del2              =   1.2741192460478E-12
(PID.TID 0000.0001) // =======================================================
(PID.TID 0000.0001) // End MONITOR EXF statistics
(PID.TID 0000.0001) // =======================================================
 cg2d: Sum(rhs),rhsMax =   1.14948822205691E+03  4.09644914791840E-02
(PID.TID 0000.0001)      cg2d_init_res =   1.66721043392660E+00
(PID.TID 0000.0001)      cg2d_iters(min,last) =      -1     314
(PID.TID 0000.0001)      cg2d_last_res =   7.03611073423263E-12
(PID.TID 0000.0001) // =======================================================
(PID.TID 0000.0001) // Begin MONITOR dynamic field statistics
(PID.TID 0000.0001) // =======================================================
(PID.TID 0000.0001) %MON time_tsnumber                =                    10
(PID.TID 0000.0001) %MON time_secondsf                =   2.4000000000000E+03
(PID.TID 0000.0001) %MON dynstat_eta_max              =   9.5774558435226E-01
(PID.TID 0000.0001) %MON dynstat_eta_min              =  -1.2268202280005E+00
(PID.TID 0000.0001) %MON dynstat_eta_mean             =  -3.9090589144537E-02
(PID.TID 0000.0001) %MON dynstat_eta_sd               =   2.3943235005406E-01
(PID.TID 0000.0001) %MON dynstat_eta_del2             =   2.4200845690483E-06
(PID.TID 0000.0001) %MON dynstat_uvel_max             =   8.9043144865464E-01
(PID.TID 0000.0001) %MON dynstat_uvel_min             =  -2.4273442097546E+00
(PID.TID 0000.0001) %MON dynstat_uvel_mean            =   5.7619145752328E-03
(PID.TID 0000.0001) %MON dynstat_uvel_sd              =   5.0474907969234E-02
(PID.TID 0000.0001) %MON dynstat_uvel_del2            =   4.7202532353202E-07
(PID.TID 0000.0001) %MON dynstat_vvel_max             =   1.2887208359374E+00
(PID.TID 0000.0001) %MON dynstat_vvel_min             =  -7.3933746400018E-01
(PID.TID 0000.0001) %MON dynstat_vvel_mean            =   4.4275601845368E-03
(PID.TID 0000.0001) %MON dynstat_vvel_sd              =   5.0931197888459E-02
(PID.TID 0000.0001) %MON dynstat_vvel_del2            =   5.0359305885697E-07
(PID.TID 0000.0001) %MON dynstat_wvel_max             =   3.4987529590994E-02
(PID.TID 0000.0001) %MON dynstat_wvel_min             =  -3.0241871280853E-02
(PID.TID 0000.0001) %MON dynstat_wvel_mean            =  -1.3864975854459E-05
(PID.TID 0000.0001) %MON dynstat_wvel_sd              =   6.0211569281321E-04
(PID.TID 0000.0001) %MON dynstat_wvel_del2            =   7.5259350659675E-08
(PID.TID 0000.0001) %MON dynstat_theta_max            =   2.6135345758035E+01
(PID.TID 0000.0001) %MON dynstat_theta_min            =   1.4688650030247E+00
(PID.TID 0000.0001) %MON dynstat_theta_mean           =   5.5098465046844E+00
(PID.TID 0000.0001) %MON dynstat_theta_sd             =   4.7732950365320E+00
(PID.TID 0000.0001) %MON dynstat_theta_del2           =   4.0256393844370E-06
(PID.TID 0000.0001) %MON dynstat_salt_max             =   3.9160241823383E+01
(PID.TID 0000.0001) %MON dynstat_salt_min             =   3.3091005981440E+01
(PID.TID 0000.0001) %MON dynstat_salt_mean            =   3.5173366156991E+01
(PID.TID 0000.0001) %MON dynstat_salt_sd              =   3.7891540795865E-01
(PID.TID 0000.0001) %MON dynstat_salt_del2            =   5.2150498585639E-07
(PID.TID 0000.0001) %MON dynstat_sst_max              =   2.6124885889249E+01
(PID.TID 0000.0001) %MON dynstat_sst_min              =   3.9395894460138E+00
(PID.TID 0000.0001) %MON dynstat_sst_mean             =   1.9635596517909E+01
(PID.TID 0000.0001) %MON dynstat_sst_sd               =   3.6360053994997E+00
(PID.TID 0000.0001) %MON dynstat_sst_del2             =   1.9186566066287E-05
(PID.TID 0000.0001) %MON dynstat_sss_max              =   3.7335429295156E+01
(PID.TID 0000.0001) %MON dynstat_sss_min              =   3.3091005981440E+01
(PID.TID 0000.0001) %MON dynstat_sss_mean             =   3.5868495782566E+01
(PID.TID 0000.0001) %MON dynstat_sss_sd               =   4.8741269979856E-01
(PID.TID 0000.0001) %MON dynstat_sss_del2             =   4.9307833732354E-06
(PID.TID 0000.0001) %MON forcing_qnet_max             =   1.0753076885224E+03
(PID.TID 0000.0001) %MON forcing_qnet_min             =  -1.8031758631106E+02
(PID.TID 0000.0001) %MON forcing_qnet_mean            =   3.2707671226649E+02
(PID.TID 0000.0001) %MON forcing_qnet_sd              =   2.1660109643905E+02
(PID.TID 0000.0001) %MON forcing_qnet_del2            =   1.1804497666501E-03
(PID.TID 0000.0001) %MON forcing_qsw_max              =   0.0000000000000E+00
(PID.TID 0000.0001) %MON forcing_qsw_min              =  -1.4236987038962E+01
(PID.TID 0000.0001) %MON forcing_qsw_mean             =  -4.7417363888010E-01
(PID.TID 0000.0001) %MON forcing_qsw_sd               =   1.5035881319013E+00
(PID.TID 0000.0001) %MON forcing_qsw_del2             =   4.8421575495789E-06
(PID.TID 0000.0001) %MON forcing_empmr_max            =   2.2586767324244E-04
(PID.TID 0000.0001) %MON forcing_empmr_min            =  -1.0771268921893E-03
(PID.TID 0000.0001) %MON forcing_empmr_mean           =   4.1714966509982E-05
(PID.TID 0000.0001) %MON forcing_empmr_sd             =   1.0898529200397E-04
(PID.TID 0000.0001) %MON forcing_empmr_del2           =   9.2660156855335E-10
(PID.TID 0000.0001) %MON forcing_fu_max               =   5.1139304269866E-01
(PID.TID 0000.0001) %MON forcing_fu_min               =  -3.2127140699412E-01
(PID.TID 0000.0001) %MON forcing_fu_mean              =   6.9940692130960E-02
(PID.TID 0000.0001) %MON forcing_fu_sd                =   1.4009004000839E-01
(PID.TID 0000.0001) %MON forcing_fu_del2              =   2.7603297530048E-07
(PID.TID 0000.0001) %MON forcing_fv_max               =   5.7360301684870E-01
(PID.TID 0000.0001) %MON forcing_fv_min               =  -1.7744568328412E-01
(PID.TID 0000.0001) %MON forcing_fv_mean              =   9.7213493482755E-02
(PID.TID 0000.0001) %MON forcing_fv_sd                =   1.3467151308726E-01
(PID.TID 0000.0001) %MON forcing_fv_del2              =   2.2797822545488E-07
(PID.TID 0000.0001) %MON trAdv_CFL_u_max              =   1.5336785280387E-01
(PID.TID 0000.0001) %MON trAdv_CFL_v_max              =   7.8187675081913E-02
(PID.TID 0000.0001) %MON trAdv_CFL_w_max              =   4.9749209639276E-01
(PID.TID 0000.0001) %MON advcfl_uvel_max              =   1.5341388736468E-01
(PID.TID 0000.0001) %MON advcfl_vvel_max              =   7.8187676479292E-02
(PID.TID 0000.0001) %MON advcfl_wvel_max              =   4.9363556851374E-01
(PID.TID 0000.0001) %MON advcfl_W_hf_max              =   4.9749209639276E-01
(PID.TID 0000.0001) %MON pe_b_mean                    =  -8.4846495867720E-04
(PID.TID 0000.0001) %MON ke_max                       =   2.6546387367796E+00
(PID.TID 0000.0001) %MON ke_mean                      =   2.5782645940279E-03
(PID.TID 0000.0001) %MON ke_vol                       =   4.5818637829946E+16
(PID.TID 0000.0001) %MON vort_r_min                   =  -5.1468907263642E-04
(PID.TID 0000.0001) %MON vort_r_max                   =   6.8038058968249E-04
(PID.TID 0000.0001) %MON vort_a_mean                  =   8.2147624282099E-05
(PID.TID 0000.0001) %MON vort_a_sd                    =   1.0144423291267E-05
(PID.TID 0000.0001) %MON vort_p_mean                  =   8.4848846635881E-05
(PID.TID 0000.0001) %MON vort_p_sd                    =   3.4986988005251E-05
(PID.TID 0000.0001) %MON surfExpan_theta_mean         =  -3.1627467937718E-04
(PID.TID 0000.0001) %MON surfExpan_salt_mean          =  -8.7716639563578E-04
(PID.TID 0000.0001) // =======================================================
(PID.TID 0000.0001) // End MONITOR dynamic field statistics
(PID.TID 0000.0001) // =======================================================
(PID.TID 0000.0001) // =======================================================
(PID.TID 0000.0001) // Begin OBCS MONITOR field statistics
(PID.TID 0000.0001) // =======================================================
(PID.TID 0000.0001) %MON obc_E_uVel_max               =   2.6373864313116E-01
(PID.TID 0000.0001) %MON obc_E_uVel_min               =  -2.4273442097546E+00
(PID.TID 0000.0001) %MON obc_E_uVel_mean              =   4.9496481534782E-03
(PID.TID 0000.0001) %MON obc_E_uVel_sd                =   4.4565417105147E-02
(PID.TID 0000.0001) %MON obc_E_uVel_Int               =   9.5597504265115E+07
(PID.TID 0000.0001) %MON obc_W_uVel_max               =   3.2381870407336E-01
(PID.TID 0000.0001) %MON obc_W_uVel_min               =  -6.9453860443540E-01
(PID.TID 0000.0001) %MON obc_W_uVel_mean              =  -4.9071444534522E-03
(PID.TID 0000.0001) %MON obc_W_uVel_sd                =   8.6377443039543E-02
(PID.TID 0000.0001) %MON obc_W_uVel_Int               =  -2.9882705586749E+07
(PID.TID 0000.0001) %MON obc_N_vVel_max               =   3.0351742983994E-01
(PID.TID 0000.0001) %MON obc_N_vVel_min               =  -1.0054054941658E-01
(PID.TID 0000.0001) %MON obc_N_vVel_mean              =   1.9923193255025E-02
(PID.TID 0000.0001) %MON obc_N_vVel_sd                =   4.0623889311225E-02
(PID.TID 0000.0001) %MON obc_N_vVel_Int               =   1.6387726900311E+08
(PID.TID 0000.0001) %MON obc_S_vVel_max               =   5.0044144431578E-02
(PID.TID 0000.0001) %MON obc_S_vVel_min               =  -9.1351955129159E-02
(PID.TID 0000.0001) %MON obc_S_vVel_mean              =   7.4276522291729E-04
(PID.TID 0000.0001) %MON obc_S_vVel_sd                =   1.1329720171864E-02
(PID.TID 0000.0001) %MON obc_S_vVel_Int               =   8.2661596145586E+06
(PID.TID 0000.0001) %MON obc_E_theta_max              =   2.5543913821012E+01
(PID.TID 0000.0001) %MON obc_E_theta_min              =   1.4632996037592E+00
(PID.TID 0000.0001) %MON obc_E_theta_mean             =   5.4563362885136E+00
(PID.TID 0000.0001) %MON obc_E_theta_sd               =   5.6195665395026E+00
(PID.TID 0000.0001) %MON obc_W_theta_max              =   1.5385751006213E+01
(PID.TID 0000.0001) %MON obc_W_theta_min              =   1.8895912176394E+00
(PID.TID 0000.0001) %MON obc_W_theta_mean             =   4.2051058238916E+00
(PID.TID 0000.0001) %MON obc_W_theta_sd               =   2.6437306382552E+00
(PID.TID 0000.0001) %MON obc_N_theta_max              =   1.6389980023293E+01
(PID.TID 0000.0001) %MON obc_N_theta_min              =   2.0877769152215E+00
(PID.TID 0000.0001) %MON obc_N_theta_mean             =   5.8650437156347E+00
(PID.TID 0000.0001) %MON obc_N_theta_sd               =   3.8420835301483E+00
(PID.TID 0000.0001) %MON obc_S_theta_max              =   2.3210518748418E+01
(PID.TID 0000.0001) %MON obc_S_theta_min              =   1.8976912433199E+00
(PID.TID 0000.0001) %MON obc_S_theta_mean             =   5.4651265983135E+00
(PID.TID 0000.0001) %MON obc_S_theta_sd               =   4.8644958977174E+00
(PID.TID 0000.0001) %MON obc_E_salt_max               =   3.7284701279247E+01
(PID.TID 0000.0001) %MON obc_E_salt_min               =   3.4844694836021E+01
(PID.TID 0000.0001) %MON obc_E_salt_mean              =   3.5160048836323E+01
(PID.TID 0000.0001) %MON obc_E_salt_sd                =   4.6599338353581E-01
(PID.TID 0000.0001) %MON obc_W_salt_max               =   3.5867261939252E+01
(PID.TID 0000.0001) %MON obc_W_salt_min               =   3.3295069096378E+01
(PID.TID 0000.0001) %MON obc_W_salt_mean              =   3.4957941260268E+01
(PID.TID 0000.0001) %MON obc_W_salt_sd                =   2.4692230240439E-01
(PID.TID 0000.0001) %MON obc_N_salt_max               =   3.5910863564326E+01
(PID.TID 0000.0001) %MON obc_N_salt_min               =   3.4917014889431E+01
(PID.TID 0000.0001) %MON obc_N_salt_mean              =   3.5230513502154E+01
(PID.TID 0000.0001) %MON obc_N_salt_sd                =   3.0056368583640E-01
(PID.TID 0000.0001) %MON obc_S_salt_max               =   3.7318277786781E+01
(PID.TID 0000.0001) %MON obc_S_salt_min               =   3.4884963747303E+01
(PID.TID 0000.0001) %MON obc_S_salt_mean              =   3.5182817297887E+01
(PID.TID 0000.0001) %MON obc_S_salt_sd                =   4.4105926206456E-01
(PID.TID 0000.0001) // =======================================================
(PID.TID 0000.0001) // End OBCS MONITOR field statistics
(PID.TID 0000.0001) // =======================================================
(PID.TID 0000.0001) // =======================================================
(PID.TID 0000.0001) // Begin MONITOR EXF statistics
(PID.TID 0000.0001) // =======================================================
(PID.TID 0000.0001) %MON exf_tsnumber                 =                    10
(PID.TID 0000.0001) %MON exf_time_sec                 =   2.4000000000000E+03
(PID.TID 0000.0001) %MON exf_ustress_max              =   5.0921731731186E-01
(PID.TID 0000.0001) %MON exf_ustress_min              =  -3.2376348327647E-01
(PID.TID 0000.0001) %MON exf_ustress_mean             =   6.9544445395104E-02
(PID.TID 0000.0001) %MON exf_ustress_sd               =   1.3997950843821E-01
(PID.TID 0000.0001) %MON exf_ustress_del2             =   3.0284160861793E-07
(PID.TID 0000.0001) %MON exf_vstress_max              =   5.7156070146333E-01
(PID.TID 0000.0001) %MON exf_vstress_min              =  -1.7698777409205E-01
(PID.TID 0000.0001) %MON exf_vstress_mean             =   9.6973776254898E-02
(PID.TID 0000.0001) %MON exf_vstress_sd               =   1.3449470941696E-01
(PID.TID 0000.0001) %MON exf_vstress_del2             =   2.5242578733487E-07
(PID.TID 0000.0001) %MON exf_hflux_max                =   1.0581041424009E+03
(PID.TID 0000.0001) %MON exf_hflux_min                =  -1.2981923831038E+02
(PID.TID 0000.0001) %MON exf_hflux_mean               =   3.2251460981654E+02
(PID.TID 0000.0001) %MON exf_hflux_sd                 =   2.1050976112636E+02
(PID.TID 0000.0001) %MON exf_hflux_del2               =   8.6156477536787E-02
(PID.TID 0000.0001) %MON exf_sflux_max                =   2.2545549468755E-07
(PID.TID 0000.0001) %MON exf_sflux_min                =  -1.0904326125896E-06
(PID.TID 0000.0001) %MON exf_sflux_mean               =   4.1547393989850E-08
(PID.TID 0000.0001) %MON exf_sflux_sd                 =   1.0957431581374E-07
(PID.TID 0000.0001) %MON exf_sflux_del2               =   2.4228224938918E-11
(PID.TID 0000.0001) %MON exf_uwind_max                =   1.5572419401849E+01
(PID.TID 0000.0001) %MON exf_uwind_min                =  -1.3232973726339E+01
(PID.TID 0000.0001) %MON exf_uwind_mean               =   2.9257038968198E+00
(PID.TID 0000.0001) %MON exf_uwind_sd                 =   6.7730406778648E+00
(PID.TID 0000.0001) %MON exf_uwind_del2               =   1.6372542492933E-03
(PID.TID 0000.0001) %MON exf_vwind_max                =   1.4834904847994E+01
(PID.TID 0000.0001) %MON exf_vwind_min                =  -1.0454759549222E+01
(PID.TID 0000.0001) %MON exf_vwind_mean               =   4.6066913937397E+00
(PID.TID 0000.0001) %MON exf_vwind_sd                 =   5.9465478826643E+00
(PID.TID 0000.0001) %MON exf_vwind_del2               =   1.6817644091638E-03
(PID.TID 0000.0001) %MON exf_wspeed_max               =   1.8317462117361E+01
(PID.TID 0000.0001) %MON exf_wspeed_min               =   3.4033748850681E-02
(PID.TID 0000.0001) %MON exf_wspeed_mean              =   9.9164580809477E+00
(PID.TID 0000.0001) %MON exf_wspeed_sd                =   3.5609998262648E+00
(PID.TID 0000.0001) %MON exf_wspeed_del2              =   2.3470519475230E-03
(PID.TID 0000.0001) %MON exf_atemp_max                =   2.9778911521393E+02
(PID.TID 0000.0001) %MON exf_atemp_min                =   2.7435514444983E+02
(PID.TID 0000.0001) %MON exf_atemp_mean               =   2.8987822723940E+02
(PID.TID 0000.0001) %MON exf_atemp_sd                 =   4.3013027363614E+00
(PID.TID 0000.0001) %MON exf_atemp_del2               =   3.7038394957674E-03
(PID.TID 0000.0001) %MON exf_aqh_max                  =   1.4869219944487E-02
(PID.TID 0000.0001) %MON exf_aqh_min                  =   3.1160689689474E-03
(PID.TID 0000.0001) %MON exf_aqh_mean                 =   9.5846962969250E-03
(PID.TID 0000.0001) %MON exf_aqh_sd                   =   2.2555789317945E-03
(PID.TID 0000.0001) %MON exf_aqh_del2                 =   2.1301064469291E-06
(PID.TID 0000.0001) %MON exf_lwflux_max               =   1.5652650244410E+02
(PID.TID 0000.0001) %MON exf_lwflux_min               =  -2.2478367335601E+00
(PID.TID 0000.0001) %MON exf_lwflux_mean              =   7.2732972094691E+01
(PID.TID 0000.0001) %MON exf_lwflux_sd                =   2.7985336680362E+01
(PID.TID 0000.0001) %MON exf_lwflux_del2              =   1.7284969831487E-02
(PID.TID 0000.0001) %MON exf_evap_max                 =   2.4818758932366E-07
(PID.TID 0000.0001) %MON exf_evap_min                 =  -4.1460399355458E-08
(PID.TID 0000.0001) %MON exf_evap_mean                =   7.9243240633497E-08
(PID.TID 0000.0001) %MON exf_evap_sd                  =   5.5580067752469E-08
(PID.TID 0000.0001) %MON exf_evap_del2                =   2.1422862510384E-11
(PID.TID 0000.0001) %MON exf_precip_max               =   1.0892069018517E-06
(PID.TID 0000.0001) %MON exf_precip_min               =   0.0000000000000E+00
(PID.TID 0000.0001) %MON exf_precip_mean              =   3.6107366447212E-08
(PID.TID 0000.0001) %MON exf_precip_sd                =   8.3647845186812E-08
(PID.TID 0000.0001) %MON exf_precip_del2              =   1.8320851866541E-11
(PID.TID 0000.0001) %MON exf_swflux_max               =   0.0000000000000E+00
(PID.TID 0000.0001) %MON exf_swflux_min               =  -1.3182395406446E+01
(PID.TID 0000.0001) %MON exf_swflux_mean              =  -4.3904966562972E-01
(PID.TID 0000.0001) %MON exf_swflux_sd                =   1.3922112332420E+00
(PID.TID 0000.0001) %MON exf_swflux_del2              =   3.0115220867605E-04
(PID.TID 0000.0001) %MON exf_swdown_max               =   1.4647106007163E+01
(PID.TID 0000.0001) %MON exf_swdown_min               =   0.0000000000000E+00
(PID.TID 0000.0001) %MON exf_swdown_mean              =   4.8783296181080E-01
(PID.TID 0000.0001) %MON exf_swdown_sd                =   1.5469013702689E+00
(PID.TID 0000.0001) %MON exf_swdown_del2              =   3.3461356519561E-04
(PID.TID 0000.0001) %MON exf_lwdown_max               =   4.0278137979986E+02
(PID.TID 0000.0001) %MON exf_lwdown_min               =   2.4874552752219E+02
(PID.TID 0000.0001) %MON exf_lwdown_mean              =   3.4206151759281E+02
(PID.TID 0000.0001) %MON exf_lwdown_sd                =   2.7567035553536E+01
(PID.TID 0000.0001) %MON exf_lwdown_del2              =   7.4684487688869E-02
(PID.TID 0000.0001) %MON exf_apressure_max            =   1.0100822482703E+05
(PID.TID 0000.0001) %MON exf_apressure_min            =   9.5523883617581E+04
(PID.TID 0000.0001) %MON exf_apressure_mean           =   9.9020313638193E+04
(PID.TID 0000.0001) %MON exf_apressure_sd             =   1.2859845227169E+03
(PID.TID 0000.0001) %MON exf_apressure_del2           =   2.1664356275260E+01
(PID.TID 0000.0001) %MON exf_runoff_max               =   4.4374822325994E-08
(PID.TID 0000.0001) %MON exf_runoff_min               =   0.0000000000000E+00
(PID.TID 0000.0001) %MON exf_runoff_mean              =   1.5884801964352E-09
(PID.TID 0000.0001) %MON exf_runoff_sd                =   5.3901974500338E-09
(PID.TID 0000.0001) %MON exf_runoff_del2              =   1.2741192460478E-12
(PID.TID 0000.0001) // =======================================================
(PID.TID 0000.0001) // End MONITOR EXF statistics
(PID.TID 0000.0001) // =======================================================
 cg2d: Sum(rhs),rhsMax =   1.33781804690219E+03  4.78726791205066E-02
(PID.TID 0000.0001)      cg2d_init_res =   1.63487187923421E+00
(PID.TID 0000.0001)      cg2d_iters(min,last) =      -1     313
(PID.TID 0000.0001)      cg2d_last_res =   6.94949271883182E-12
(PID.TID 0000.0001) // =======================================================
(PID.TID 0000.0001) // Begin MONITOR dynamic field statistics
(PID.TID 0000.0001) // =======================================================
(PID.TID 0000.0001) %MON time_tsnumber                =                    11
(PID.TID 0000.0001) %MON time_secondsf                =   2.6400000000000E+03
(PID.TID 0000.0001) %MON dynstat_eta_max              =   9.1012481136777E-01
(PID.TID 0000.0001) %MON dynstat_eta_min              =  -1.0956791633453E+00
(PID.TID 0000.0001) %MON dynstat_eta_mean             =  -4.5495112188292E-02
(PID.TID 0000.0001) %MON dynstat_eta_sd               =   2.5038062933025E-01
(PID.TID 0000.0001) %MON dynstat_eta_del2             =   2.3696999420197E-06
(PID.TID 0000.0001) %MON dynstat_uvel_max             =   8.8967653918060E-01
(PID.TID 0000.0001) %MON dynstat_uvel_min             =  -2.4884757366814E+00
(PID.TID 0000.0001) %MON dynstat_uvel_mean            =   6.0298411253578E-03
(PID.TID 0000.0001) %MON dynstat_uvel_sd              =   5.0565302445349E-02
(PID.TID 0000.0001) %MON dynstat_uvel_del2            =   4.8042887031619E-07
(PID.TID 0000.0001) %MON dynstat_vvel_max             =   1.2832610234882E+00
(PID.TID 0000.0001) %MON dynstat_vvel_min             =  -7.1821963124748E-01
(PID.TID 0000.0001) %MON dynstat_vvel_mean            =   4.4866127738472E-03
(PID.TID 0000.0001) %MON dynstat_vvel_sd              =   5.0928695921511E-02
(PID.TID 0000.0001) %MON dynstat_vvel_del2            =   5.1162965548757E-07
(PID.TID 0000.0001) %MON dynstat_wvel_max             =   3.4419173880117E-02
(PID.TID 0000.0001) %MON dynstat_wvel_min             =  -3.1217634454401E-02
(PID.TID 0000.0001) %MON dynstat_wvel_mean            =  -1.4991922544571E-05
(PID.TID 0000.0001) %MON dynstat_wvel_sd              =   6.0499528637988E-04
(PID.TID 0000.0001) %MON dynstat_wvel_del2            =   7.4054900037519E-08
(PID.TID 0000.0001) %MON dynstat_theta_max            =   2.6135474267113E+01
(PID.TID 0000.0001) %MON dynstat_theta_min            =   1.4688651911953E+00
(PID.TID 0000.0001) %MON dynstat_theta_mean           =   5.5098535483292E+00
(PID.TID 0000.0001) %MON dynstat_theta_sd             =   4.7732862988689E+00
(PID.TID 0000.0001) %MON dynstat_theta_del2           =   4.0286559086841E-06
(PID.TID 0000.0001) %MON dynstat_salt_max             =   3.9156357811526E+01
(PID.TID 0000.0001) %MON dynstat_salt_min             =   3.3091149314045E+01
(PID.TID 0000.0001) %MON dynstat_salt_mean            =   3.5173366279093E+01
(PID.TID 0000.0001) %MON dynstat_salt_sd              =   3.7891663901394E-01
(PID.TID 0000.0001) %MON dynstat_salt_del2            =   5.2462094460940E-07
(PID.TID 0000.0001) %MON dynstat_sst_max              =   2.6125621204432E+01
(PID.TID 0000.0001) %MON dynstat_sst_min              =   3.9238407766454E+00
(PID.TID 0000.0001) %MON dynstat_sst_mean             =   1.9634767131267E+01
(PID.TID 0000.0001) %MON dynstat_sst_sd               =   3.6358808931811E+00
(PID.TID 0000.0001) %MON dynstat_sst_del2             =   1.9219562783916E-05
(PID.TID 0000.0001) %MON dynstat_sss_max              =   3.7335482698197E+01
(PID.TID 0000.0001) %MON dynstat_sss_min              =   3.3091149314045E+01
(PID.TID 0000.0001) %MON dynstat_sss_mean             =   3.5868530203872E+01
(PID.TID 0000.0001) %MON dynstat_sss_sd               =   4.8742668162143E-01
(PID.TID 0000.0001) %MON dynstat_sss_del2             =   4.9239259400669E-06
(PID.TID 0000.0001) %MON forcing_qnet_max             =   1.0739794663182E+03
(PID.TID 0000.0001) %MON forcing_qnet_min             =  -1.8218077933588E+02
(PID.TID 0000.0001) %MON forcing_qnet_mean            =   3.2684260709267E+02
(PID.TID 0000.0001) %MON forcing_qnet_sd              =   2.1633838811443E+02
(PID.TID 0000.0001) %MON forcing_qnet_del2            =   1.1786763085786E-03
(PID.TID 0000.0001) %MON forcing_qsw_max              =   0.0000000000000E+00
(PID.TID 0000.0001) %MON forcing_qsw_min              =  -1.3182395406446E+01
(PID.TID 0000.0001) %MON forcing_qsw_mean             =  -4.3904966562972E-01
(PID.TID 0000.0001) %MON forcing_qsw_sd               =   1.3922112332420E+00
(PID.TID 0000.0001) %MON forcing_qsw_del2             =   4.4834792125730E-06
(PID.TID 0000.0001) %MON forcing_empmr_max            =   2.2545549468755E-04
(PID.TID 0000.0001) %MON forcing_empmr_min            =  -1.0904326125896E-03
(PID.TID 0000.0001) %MON forcing_empmr_mean           =   4.1547393989850E-05
(PID.TID 0000.0001) %MON forcing_empmr_sd             =   1.0957431581374E-04
(PID.TID 0000.0001) %MON forcing_empmr_del2           =   9.4070809853582E-10
(PID.TID 0000.0001) %MON forcing_fu_max               =   5.0919582813795E-01
(PID.TID 0000.0001) %MON forcing_fu_min               =  -3.2374713324552E-01
(PID.TID 0000.0001) %MON forcing_fu_mean              =   6.9649786608906E-02
(PID.TID 0000.0001) %MON forcing_fu_sd                =   1.3998962581944E-01
(PID.TID 0000.0001) %MON forcing_fu_del2              =   2.7903987683037E-07
(PID.TID 0000.0001) %MON forcing_fv_max               =   5.7150489488821E-01
(PID.TID 0000.0001) %MON forcing_fv_min               =  -1.7697278151689E-01
(PID.TID 0000.0001) %MON forcing_fv_mean              =   9.6999646817186E-02
(PID.TID 0000.0001) %MON forcing_fv_sd                =   1.3450379972310E-01
(PID.TID 0000.0001) %MON forcing_fv_del2              =   2.2827661102436E-07
(PID.TID 0000.0001) %MON trAdv_CFL_u_max              =   1.5723035033747E-01
(PID.TID 0000.0001) %MON trAdv_CFL_v_max              =   7.7856424100411E-02
(PID.TID 0000.0001) %MON trAdv_CFL_w_max              =   5.0108076614451E-01
(PID.TID 0000.0001) %MON advcfl_uvel_max              =   1.5727754425714E-01
(PID.TID 0000.0001) %MON advcfl_vvel_max              =   7.7856425491870E-02
(PID.TID 0000.0001) %MON advcfl_wvel_max              =   4.9272942004210E-01
(PID.TID 0000.0001) %MON advcfl_W_hf_max              =   5.0108076614451E-01
(PID.TID 0000.0001) %MON pe_b_mean                    =  -9.9270462298131E-04
(PID.TID 0000.0001) %MON ke_max                       =   2.7922238005340E+00
(PID.TID 0000.0001) %MON ke_mean                      =   2.5845036243436E-03
(PID.TID 0000.0001) %MON ke_vol                       =   4.5818637829946E+16
(PID.TID 0000.0001) %MON vort_r_min                   =  -5.1503850911828E-04
(PID.TID 0000.0001) %MON vort_r_max                   =   7.1371726363409E-04
(PID.TID 0000.0001) %MON vort_a_mean                  =   8.2147623467512E-05
(PID.TID 0000.0001) %MON vort_a_sd                    =   1.0147969081331E-05
(PID.TID 0000.0001) %MON vort_p_mean                  =   8.4848845794507E-05
(PID.TID 0000.0001) %MON vort_p_sd                    =   3.4990269110675E-05
(PID.TID 0000.0001) %MON surfExpan_theta_mean         =  -3.5934073072248E-04
(PID.TID 0000.0001) %MON surfExpan_salt_mean          =  -9.4352281520027E-04
(PID.TID 0000.0001) // =======================================================
(PID.TID 0000.0001) // End MONITOR dynamic field statistics
(PID.TID 0000.0001) // =======================================================
(PID.TID 0000.0001) // =======================================================
(PID.TID 0000.0001) // Begin OBCS MONITOR field statistics
(PID.TID 0000.0001) // =======================================================
(PID.TID 0000.0001) %MON obc_E_uVel_max               =   2.6381518613730E-01
(PID.TID 0000.0001) %MON obc_E_uVel_min               =  -2.4884757366814E+00
(PID.TID 0000.0001) %MON obc_E_uVel_mean              =   5.4270100705830E-03
(PID.TID 0000.0001) %MON obc_E_uVel_sd                =   4.4672288542261E-02
(PID.TID 0000.0001) %MON obc_E_uVel_Int               =   1.0481727231557E+08
(PID.TID 0000.0001) %MON obc_W_uVel_max               =   3.2411685487270E-01
(PID.TID 0000.0001) %MON obc_W_uVel_min               =  -6.9437478420401E-01
(PID.TID 0000.0001) %MON obc_W_uVel_mean              =  -4.6933491289449E-03
(PID.TID 0000.0001) %MON obc_W_uVel_sd                =   8.6271457903878E-02
(PID.TID 0000.0001) %MON obc_W_uVel_Int               =  -2.8580770663358E+07
(PID.TID 0000.0001) %MON obc_N_vVel_max               =   3.0364195598930E-01
(PID.TID 0000.0001) %MON obc_N_vVel_min               =  -1.0027236370806E-01
(PID.TID 0000.0001) %MON obc_N_vVel_mean              =   2.0017478259949E-02
(PID.TID 0000.0001) %MON obc_N_vVel_sd                =   4.0687793923955E-02
(PID.TID 0000.0001) %MON obc_N_vVel_Int               =   1.6465280578163E+08
(PID.TID 0000.0001) %MON obc_S_vVel_max               =   4.9109661876015E-02
(PID.TID 0000.0001) %MON obc_S_vVel_min               =  -9.1805101988234E-02
(PID.TID 0000.0001) %MON obc_S_vVel_mean              =  -3.1759919186746E-04
(PID.TID 0000.0001) %MON obc_S_vVel_sd                =   1.1300125352200E-02
(PID.TID 0000.0001) %MON obc_S_vVel_Int               =  -3.5345295288867E+06
(PID.TID 0000.0001) %MON obc_E_theta_max              =   2.5543811072233E+01
(PID.TID 0000.0001) %MON obc_E_theta_min              =   1.4633000000465E+00
(PID.TID 0000.0001) %MON obc_E_theta_mean             =   5.4563359504578E+00
(PID.TID 0000.0001) %MON obc_E_theta_sd               =   5.6195629260831E+00
(PID.TID 0000.0001) %MON obc_W_theta_max              =   1.5385631092602E+01
(PID.TID 0000.0001) %MON obc_W_theta_min              =   1.8895912667048E+00
(PID.TID 0000.0001) %MON obc_W_theta_mean             =   4.2050936033726E+00
(PID.TID 0000.0001) %MON obc_W_theta_sd               =   2.6437103962052E+00
(PID.TID 0000.0001) %MON obc_N_theta_max              =   1.6389891921106E+01
(PID.TID 0000.0001) %MON obc_N_theta_min              =   2.0877736400475E+00
(PID.TID 0000.0001) %MON obc_N_theta_mean             =   5.8650399120427E+00
(PID.TID 0000.0001) %MON obc_N_theta_sd               =   3.8420776388210E+00
(PID.TID 0000.0001) %MON obc_S_theta_max              =   2.3210434811327E+01
(PID.TID 0000.0001) %MON obc_S_theta_min              =   1.8976912325821E+00
(PID.TID 0000.0001) %MON obc_S_theta_mean             =   5.4651249828732E+00
(PID.TID 0000.0001) %MON obc_S_theta_sd               =   4.8644914848508E+00
(PID.TID 0000.0001) %MON obc_E_salt_max               =   3.7284689209729E+01
(PID.TID 0000.0001) %MON obc_E_salt_min               =   3.4844694888241E+01
(PID.TID 0000.0001) %MON obc_E_salt_mean              =   3.5160048906181E+01
(PID.TID 0000.0001) %MON obc_E_salt_sd                =   4.6599341314549E-01
(PID.TID 0000.0001) %MON obc_W_salt_max               =   3.5867262442308E+01
(PID.TID 0000.0001) %MON obc_W_salt_min               =   3.3295074599012E+01
(PID.TID 0000.0001) %MON obc_W_salt_mean              =   3.4957940734965E+01
(PID.TID 0000.0001) %MON obc_W_salt_sd                =   2.4692156819639E-01
(PID.TID 0000.0001) %MON obc_N_salt_max               =   3.5910863155963E+01
(PID.TID 0000.0001) %MON obc_N_salt_min               =   3.4917014875506E+01
(PID.TID 0000.0001) %MON obc_N_salt_mean              =   3.5230513375939E+01
(PID.TID 0000.0001) %MON obc_N_salt_sd                =   3.0056376472094E-01
(PID.TID 0000.0001) %MON obc_S_salt_max               =   3.7318270902396E+01
(PID.TID 0000.0001) %MON obc_S_salt_min               =   3.4884963743474E+01
(PID.TID 0000.0001) %MON obc_S_salt_mean              =   3.5182816979923E+01
(PID.TID 0000.0001) %MON obc_S_salt_sd                =   4.4105822517646E-01
(PID.TID 0000.0001) // =======================================================
(PID.TID 0000.0001) // End OBCS MONITOR field statistics
(PID.TID 0000.0001) // =======================================================
(PID.TID 0000.0001) // =======================================================
(PID.TID 0000.0001) // Begin MONITOR EXF statistics
(PID.TID 0000.0001) // =======================================================
(PID.TID 0000.0001) %MON exf_tsnumber                 =                    11
(PID.TID 0000.0001) %MON exf_time_sec                 =   2.6400000000000E+03
(PID.TID 0000.0001) %MON exf_ustress_max              =   5.0710157876064E-01
(PID.TID 0000.0001) %MON exf_ustress_min              =  -3.2635250906969E-01
(PID.TID 0000.0001) %MON exf_ustress_mean             =   6.9259813773063E-02
(PID.TID 0000.0001) %MON exf_ustress_sd               =   1.3990078026309E-01
(PID.TID 0000.0001) %MON exf_ustress_del2             =   3.0623062689461E-07
(PID.TID 0000.0001) %MON exf_vstress_max              =   5.6950721061484E-01
(PID.TID 0000.0001) %MON exf_vstress_min              =  -1.7654052131856E-01
(PID.TID 0000.0001) %MON exf_vstress_mean             =   9.6767149144705E-02
(PID.TID 0000.0001) %MON exf_vstress_sd               =   1.3434638198750E-01
(PID.TID 0000.0001) %MON exf_vstress_del2             =   2.5343025333251E-07
(PID.TID 0000.0001) %MON exf_hflux_max                =   1.0568632410538E+03
(PID.TID 0000.0001) %MON exf_hflux_min                =  -1.2902754740115E+02
(PID.TID 0000.0001) %MON exf_hflux_mean               =   3.2230707072450E+02
(PID.TID 0000.0001) %MON exf_hflux_sd                 =   2.1024947747802E+02
(PID.TID 0000.0001) %MON exf_hflux_del2               =   8.6076594463213E-02
(PID.TID 0000.0001) %MON exf_sflux_max                =   2.2505172445105E-07
(PID.TID 0000.0001) %MON exf_sflux_min                =  -1.1037333341128E-06
(PID.TID 0000.0001) %MON exf_sflux_mean               =   4.1383789616796E-08
(PID.TID 0000.0001) %MON exf_sflux_sd                 =   1.1018950589230E-07
(PID.TID 0000.0001) %MON exf_sflux_del2               =   2.4319447182810E-11
(PID.TID 0000.0001) %MON exf_uwind_max                =   1.5565396444932E+01
(PID.TID 0000.0001) %MON exf_uwind_min                =  -1.3273214766297E+01
(PID.TID 0000.0001) %MON exf_uwind_mean               =   2.9170721732942E+00
(PID.TID 0000.0001) %MON exf_uwind_sd                 =   6.7774788136646E+00
(PID.TID 0000.0001) %MON exf_uwind_del2               =   1.6373745009805E-03
(PID.TID 0000.0001) %MON exf_vwind_max                =   1.4814860938273E+01
(PID.TID 0000.0001) %MON exf_vwind_min                =  -1.0437365572371E+01
(PID.TID 0000.0001) %MON exf_vwind_mean               =   4.6004454808358E+00
(PID.TID 0000.0001) %MON exf_vwind_sd                 =   5.9421781958009E+00
(PID.TID 0000.0001) %MON exf_vwind_del2               =   1.6804080739910E-03
(PID.TID 0000.0001) %MON exf_wspeed_max               =   1.8303109364150E+01
(PID.TID 0000.0001) %MON exf_wspeed_min               =   3.8597533701714E-02
(PID.TID 0000.0001) %MON exf_wspeed_mean              =   9.9122548905561E+00
(PID.TID 0000.0001) %MON exf_wspeed_sd                =   3.5586953299379E+00
(PID.TID 0000.0001) %MON exf_wspeed_del2              =   2.3461647820961E-03
(PID.TID 0000.0001) %MON exf_atemp_max                =   2.9778866118534E+02
(PID.TID 0000.0001) %MON exf_atemp_min                =   2.7436169203582E+02
(PID.TID 0000.0001) %MON exf_atemp_mean               =   2.8987830075316E+02
(PID.TID 0000.0001) %MON exf_atemp_sd                 =   4.2980756176742E+00
(PID.TID 0000.0001) %MON exf_atemp_del2               =   3.7038271793660E-03
(PID.TID 0000.0001) %MON exf_aqh_max                  =   1.4890824606325E-02
(PID.TID 0000.0001) %MON exf_aqh_min                  =   3.1236160572990E-03
(PID.TID 0000.0001) %MON exf_aqh_mean                 =   9.5843131148859E-03
(PID.TID 0000.0001) %MON exf_aqh_sd                   =   2.2534836328535E-03
(PID.TID 0000.0001) %MON exf_aqh_del2                 =   2.1299849559196E-06
(PID.TID 0000.0001) %MON exf_lwflux_max               =   1.5631599070376E+02
(PID.TID 0000.0001) %MON exf_lwflux_min               =  -2.9091902896999E+00
(PID.TID 0000.0001) %MON exf_lwflux_mean              =   7.2727416037147E+01
(PID.TID 0000.0001) %MON exf_lwflux_sd                =   2.8020288552916E+01
(PID.TID 0000.0001) %MON exf_lwflux_del2              =   1.7285377198974E-02
(PID.TID 0000.0001) %MON exf_evap_max                 =   2.4791124736980E-07
(PID.TID 0000.0001) %MON exf_evap_min                 =  -4.1317127411651E-08
(PID.TID 0000.0001) %MON exf_evap_mean                =   7.9174494485985E-08
(PID.TID 0000.0001) %MON exf_evap_sd                  =   5.5500780558295E-08
(PID.TID 0000.0001) %MON exf_evap_del2                =   2.1399385819388E-11
(PID.TID 0000.0001) %MON exf_precip_max               =   1.1023172114150E-06
(PID.TID 0000.0001) %MON exf_precip_min               =   0.0000000000000E+00
(PID.TID 0000.0001) %MON exf_precip_mean              =   3.6202224672753E-08
(PID.TID 0000.0001) %MON exf_precip_sd                =   8.4365043202570E-08
(PID.TID 0000.0001) %MON exf_precip_del2              =   1.8456076226755E-11
(PID.TID 0000.0001) %MON exf_swflux_max               =   0.0000000000000E+00
(PID.TID 0000.0001) %MON exf_swflux_min               =  -1.2127803773931E+01
(PID.TID 0000.0001) %MON exf_swflux_mean              =  -4.0392569237934E-01
(PID.TID 0000.0001) %MON exf_swflux_sd                =   1.2808343345826E+00
(PID.TID 0000.0001) %MON exf_swflux_del2              =   2.7706003198196E-04
(PID.TID 0000.0001) %MON exf_swdown_max               =   1.3475337526590E+01
(PID.TID 0000.0001) %MON exf_swdown_min               =   0.0000000000000E+00
(PID.TID 0000.0001) %MON exf_swdown_mean              =   4.4880632486594E-01
(PID.TID 0000.0001) %MON exf_swdown_sd                =   1.4231492606474E+00
(PID.TID 0000.0001) %MON exf_swdown_del2              =   3.0784447997996E-04
(PID.TID 0000.0001) %MON exf_lwdown_max               =   4.0288337353421E+02
(PID.TID 0000.0001) %MON exf_lwdown_min               =   2.4868559625650E+02
(PID.TID 0000.0001) %MON exf_lwdown_mean              =   3.4206249567387E+02
(PID.TID 0000.0001) %MON exf_lwdown_sd                =   2.7586406391468E+01
(PID.TID 0000.0001) %MON exf_lwdown_del2              =   7.4685461972214E-02
(PID.TID 0000.0001) %MON exf_apressure_max            =   1.0093224012167E+05
(PID.TID 0000.0001) %MON exf_apressure_min            =   9.5574070191389E+04
(PID.TID 0000.0001) %MON exf_apressure_mean           =   9.8997729349858E+04
(PID.TID 0000.0001) %MON exf_apressure_sd             =   1.2587046634076E+03
(PID.TID 0000.0001) %MON exf_apressure_del2           =   2.1659459164517E+01
(PID.TID 0000.0001) %MON exf_runoff_max               =   4.4374822325994E-08
(PID.TID 0000.0001) %MON exf_runoff_min               =   0.0000000000000E+00
(PID.TID 0000.0001) %MON exf_runoff_mean              =   1.5884801964352E-09
(PID.TID 0000.0001) %MON exf_runoff_sd                =   5.3901974500338E-09
(PID.TID 0000.0001) %MON exf_runoff_del2              =   1.2741192460478E-12
(PID.TID 0000.0001) // =======================================================
(PID.TID 0000.0001) // End MONITOR EXF statistics
(PID.TID 0000.0001) // =======================================================
 cg2d: Sum(rhs),rhsMax =   1.53871652267136E+03  5.56934859037357E-02
(PID.TID 0000.0001)      cg2d_init_res =   1.54093008205033E+00
(PID.TID 0000.0001)      cg2d_iters(min,last) =      -1     312
(PID.TID 0000.0001)      cg2d_last_res =   7.05130448193857E-12
(PID.TID 0000.0001) // =======================================================
(PID.TID 0000.0001) // Begin MONITOR dynamic field statistics
(PID.TID 0000.0001) // =======================================================
(PID.TID 0000.0001) %MON time_tsnumber                =                    12
(PID.TID 0000.0001) %MON time_secondsf                =   2.8800000000000E+03
(PID.TID 0000.0001) %MON dynstat_eta_max              =   7.9718157432191E-01
(PID.TID 0000.0001) %MON dynstat_eta_min              =  -1.1187421840116E+00
(PID.TID 0000.0001) %MON dynstat_eta_mean             =  -5.2327056722707E-02
(PID.TID 0000.0001) %MON dynstat_eta_sd               =   2.6075609127457E-01
(PID.TID 0000.0001) %MON dynstat_eta_del2             =   2.3505789241301E-06
(PID.TID 0000.0001) %MON dynstat_uvel_max             =   8.8843253195612E-01
(PID.TID 0000.0001) %MON dynstat_uvel_min             =  -2.5491025174090E+00
(PID.TID 0000.0001) %MON dynstat_uvel_mean            =   6.2683905478618E-03
(PID.TID 0000.0001) %MON dynstat_uvel_sd              =   5.0650304961639E-02
(PID.TID 0000.0001) %MON dynstat_uvel_del2            =   4.8824764435190E-07
(PID.TID 0000.0001) %MON dynstat_vvel_max             =   1.2773483367957E+00
(PID.TID 0000.0001) %MON dynstat_vvel_min             =  -7.0198726658639E-01
(PID.TID 0000.0001) %MON dynstat_vvel_mean            =   4.5237515960375E-03
(PID.TID 0000.0001) %MON dynstat_vvel_sd              =   5.0925424789214E-02
(PID.TID 0000.0001) %MON dynstat_vvel_del2            =   5.1925077483844E-07
(PID.TID 0000.0001) %MON dynstat_wvel_max             =   3.5387759193830E-02
(PID.TID 0000.0001) %MON dynstat_wvel_min             =  -3.1942638065038E-02
(PID.TID 0000.0001) %MON dynstat_wvel_mean            =  -1.6100588754988E-05
(PID.TID 0000.0001) %MON dynstat_wvel_sd              =   6.0701227508939E-04
(PID.TID 0000.0001) %MON dynstat_wvel_del2            =   7.2401043883979E-08
(PID.TID 0000.0001) %MON dynstat_theta_max            =   2.6136569795815E+01
(PID.TID 0000.0001) %MON dynstat_theta_min            =   1.4688653897146E+00
(PID.TID 0000.0001) %MON dynstat_theta_mean           =   5.5098624651343E+00
(PID.TID 0000.0001) %MON dynstat_theta_sd             =   4.7732802845501E+00
(PID.TID 0000.0001) %MON dynstat_theta_del2           =   4.0310870577494E-06
(PID.TID 0000.0001) %MON dynstat_salt_max             =   3.9152296614518E+01
(PID.TID 0000.0001) %MON dynstat_salt_min             =   3.3091292494226E+01
(PID.TID 0000.0001) %MON dynstat_salt_mean            =   3.5173366528618E+01
(PID.TID 0000.0001) %MON dynstat_salt_sd              =   3.7891795611832E-01
(PID.TID 0000.0001) %MON dynstat_salt_del2            =   5.2736709733964E-07
(PID.TID 0000.0001) %MON dynstat_sst_max              =   2.6126380299114E+01
(PID.TID 0000.0001) %MON dynstat_sst_min              =   3.9080103777220E+00
(PID.TID 0000.0001) %MON dynstat_sst_mean             =   1.9633978355188E+01
(PID.TID 0000.0001) %MON dynstat_sst_sd               =   3.6357637754085E+00
(PID.TID 0000.0001) %MON dynstat_sst_del2             =   1.9259829724398E-05
(PID.TID 0000.0001) %MON dynstat_sss_max              =   3.7335539789416E+01
(PID.TID 0000.0001) %MON dynstat_sss_min              =   3.3091292494226E+01
(PID.TID 0000.0001) %MON dynstat_sss_mean             =   3.5868562736892E+01
(PID.TID 0000.0001) %MON dynstat_sss_sd               =   4.8743969182185E-01
(PID.TID 0000.0001) %MON dynstat_sss_del2             =   4.9175446452926E-06
(PID.TID 0000.0001) %MON forcing_qnet_max             =   1.0726962956140E+03
(PID.TID 0000.0001) %MON forcing_qnet_min             =  -1.8404890225794E+02
(PID.TID 0000.0001) %MON forcing_qnet_mean            =   3.2662223659879E+02
(PID.TID 0000.0001) %MON forcing_qnet_sd              =   2.1608882601259E+02
(PID.TID 0000.0001) %MON forcing_qnet_del2            =   1.1807553947116E-03
(PID.TID 0000.0001) %MON forcing_qsw_max              =   0.0000000000000E+00
(PID.TID 0000.0001) %MON forcing_qsw_min              =  -1.2127803773931E+01
(PID.TID 0000.0001) %MON forcing_qsw_mean             =  -4.0392569237934E-01
(PID.TID 0000.0001) %MON forcing_qsw_sd               =   1.2808343345826E+00
(PID.TID 0000.0001) %MON forcing_qsw_del2             =   4.1248008755672E-06
(PID.TID 0000.0001) %MON forcing_empmr_max            =   2.2505172445105E-04
(PID.TID 0000.0001) %MON forcing_empmr_min            =  -1.1037333341128E-03
(PID.TID 0000.0001) %MON forcing_empmr_mean           =   4.1383789616796E-05
(PID.TID 0000.0001) %MON forcing_empmr_sd             =   1.1018950589230E-04
(PID.TID 0000.0001) %MON forcing_empmr_del2           =   9.5535096804182E-10
(PID.TID 0000.0001) %MON forcing_fu_max               =   5.0705901673848E-01
(PID.TID 0000.0001) %MON forcing_fu_min               =  -3.2632364706077E-01
(PID.TID 0000.0001) %MON forcing_fu_mean              =   6.9364662145668E-02
(PID.TID 0000.0001) %MON forcing_fu_sd                =   1.3991065361567E-01
(PID.TID 0000.0001) %MON forcing_fu_del2              =   2.8174437620617E-07
(PID.TID 0000.0001) %MON forcing_fv_max               =   5.6944039706719E-01
(PID.TID 0000.0001) %MON forcing_fv_min               =  -1.7652256044341E-01
(PID.TID 0000.0001) %MON forcing_fv_mean              =   9.6792742729578E-02
(PID.TID 0000.0001) %MON forcing_fv_sd                =   1.3435545574022E-01
(PID.TID 0000.0001) %MON forcing_fv_del2              =   2.2847922463372E-07
(PID.TID 0000.0001) %MON trAdv_CFL_u_max              =   1.6106095629160E-01
(PID.TID 0000.0001) %MON trAdv_CFL_v_max              =   7.7497696893489E-02
(PID.TID 0000.0001) %MON trAdv_CFL_w_max              =   5.1023058348237E-01
(PID.TID 0000.0001) %MON advcfl_uvel_max              =   1.6110929999761E-01
(PID.TID 0000.0001) %MON advcfl_vvel_max              =   7.7497698278536E-02
(PID.TID 0000.0001) %MON advcfl_wvel_max              =   5.0172674042433E-01
(PID.TID 0000.0001) %MON advcfl_W_hf_max              =   5.1023058348237E-01
(PID.TID 0000.0001) %MON pe_b_mean                    =  -1.1470371101195E-03
(PID.TID 0000.0001) %MON ke_max                       =   2.9351345712170E+00
(PID.TID 0000.0001) %MON ke_mean                      =   2.5902324747029E-03
(PID.TID 0000.0001) %MON ke_vol                       =   4.5818637829946E+16
(PID.TID 0000.0001) %MON vort_r_min                   =  -5.1486274190000E-04
(PID.TID 0000.0001) %MON vort_r_max                   =   7.3968041135108E-04
(PID.TID 0000.0001) %MON vort_a_mean                  =   8.2147622646398E-05
(PID.TID 0000.0001) %MON vort_a_sd                    =   1.0151412245197E-05
(PID.TID 0000.0001) %MON vort_p_mean                  =   8.4848844946394E-05
(PID.TID 0000.0001) %MON vort_p_sd                    =   3.4993903289300E-05
(PID.TID 0000.0001) %MON surfExpan_theta_mean         =  -4.0073117914504E-04
(PID.TID 0000.0001) %MON surfExpan_salt_mean          =  -1.0083912038929E-03
(PID.TID 0000.0001) // =======================================================
(PID.TID 0000.0001) // End MONITOR dynamic field statistics
(PID.TID 0000.0001) // =======================================================
(PID.TID 0000.0001) // =======================================================
(PID.TID 0000.0001) // Begin OBCS MONITOR field statistics
(PID.TID 0000.0001) // =======================================================
(PID.TID 0000.0001) %MON obc_E_uVel_max               =   2.6388385581095E-01
(PID.TID 0000.0001) %MON obc_E_uVel_min               =  -2.5491025174090E+00
(PID.TID 0000.0001) %MON obc_E_uVel_mean              =   5.8969593667600E-03
(PID.TID 0000.0001) %MON obc_E_uVel_sd                =   4.4782434596734E-02
(PID.TID 0000.0001) %MON obc_E_uVel_Int               =   1.1389387300568E+08
(PID.TID 0000.0001) %MON obc_W_uVel_max               =   3.2443649964790E-01
(PID.TID 0000.0001) %MON obc_W_uVel_min               =  -6.9420004969576E-01
(PID.TID 0000.0001) %MON obc_W_uVel_mean              =  -4.4753136283766E-03
(PID.TID 0000.0001) %MON obc_W_uVel_sd                =   8.6170095158557E-02
(PID.TID 0000.0001) %MON obc_W_uVel_Int               =  -2.7253014626676E+07
(PID.TID 0000.0001) %MON obc_N_vVel_max               =   3.0371542197164E-01
(PID.TID 0000.0001) %MON obc_N_vVel_min               =  -1.0002605365832E-01
(PID.TID 0000.0001) %MON obc_N_vVel_mean              =   2.0089699929664E-02
(PID.TID 0000.0001) %MON obc_N_vVel_sd                =   4.0741989716826E-02
(PID.TID 0000.0001) %MON obc_N_vVel_Int               =   1.6524686165632E+08
(PID.TID 0000.0001) %MON obc_S_vVel_max               =   4.8165761761044E-02
(PID.TID 0000.0001) %MON obc_S_vVel_min               =  -9.2252455656898E-02
(PID.TID 0000.0001) %MON obc_S_vVel_mean              =  -1.3764762429411E-03
(PID.TID 0000.0001) %MON obc_S_vVel_sd                =   1.1269631639738E-02
(PID.TID 0000.0001) %MON obc_S_vVel_Int               =  -1.5318665950878E+07
(PID.TID 0000.0001) %MON obc_E_theta_max              =   2.5543708323453E+01
(PID.TID 0000.0001) %MON obc_E_theta_min              =   1.4633003963337E+00
(PID.TID 0000.0001) %MON obc_E_theta_mean             =   5.4563356124020E+00
(PID.TID 0000.0001) %MON obc_E_theta_sd               =   5.6195593127052E+00
(PID.TID 0000.0001) %MON obc_W_theta_max              =   1.5385511178990E+01
(PID.TID 0000.0001) %MON obc_W_theta_min              =   1.8895913157701E+00
(PID.TID 0000.0001) %MON obc_W_theta_mean             =   4.2050813828537E+00
(PID.TID 0000.0001) %MON obc_W_theta_sd               =   2.6436901546379E+00
(PID.TID 0000.0001) %MON obc_N_theta_max              =   1.6389803818919E+01
(PID.TID 0000.0001) %MON obc_N_theta_min              =   2.0877703648736E+00
(PID.TID 0000.0001) %MON obc_N_theta_mean             =   5.8650361084508E+00
(PID.TID 0000.0001) %MON obc_N_theta_sd               =   3.8420717475664E+00
(PID.TID 0000.0001) %MON obc_S_theta_max              =   2.3210350874236E+01
(PID.TID 0000.0001) %MON obc_S_theta_min              =   1.8976912218442E+00
(PID.TID 0000.0001) %MON obc_S_theta_mean             =   5.4651233674328E+00
(PID.TID 0000.0001) %MON obc_S_theta_sd               =   4.8644870720084E+00
(PID.TID 0000.0001) %MON obc_E_salt_max               =   3.7284677140212E+01
(PID.TID 0000.0001) %MON obc_E_salt_min               =   3.4844694940461E+01
(PID.TID 0000.0001) %MON obc_E_salt_mean              =   3.5160048976039E+01
(PID.TID 0000.0001) %MON obc_E_salt_sd                =   4.6599344275853E-01
(PID.TID 0000.0001) %MON obc_W_salt_max               =   3.5867262945364E+01
(PID.TID 0000.0001) %MON obc_W_salt_min               =   3.3295080101645E+01
(PID.TID 0000.0001) %MON obc_W_salt_mean              =   3.4957940209662E+01
(PID.TID 0000.0001) %MON obc_W_salt_sd                =   2.4692083406219E-01
(PID.TID 0000.0001) %MON obc_N_salt_max               =   3.5910862747600E+01
(PID.TID 0000.0001) %MON obc_N_salt_min               =   3.4917014861580E+01
(PID.TID 0000.0001) %MON obc_N_salt_mean              =   3.5230513249725E+01
(PID.TID 0000.0001) %MON obc_N_salt_sd                =   3.0056384362386E-01
(PID.TID 0000.0001) %MON obc_S_salt_max               =   3.7318264018012E+01
(PID.TID 0000.0001) %MON obc_S_salt_min               =   3.4884963739644E+01
(PID.TID 0000.0001) %MON obc_S_salt_mean              =   3.5182816661958E+01
(PID.TID 0000.0001) %MON obc_S_salt_sd                =   4.4105718829997E-01
(PID.TID 0000.0001) // =======================================================
(PID.TID 0000.0001) // End OBCS MONITOR field statistics
(PID.TID 0000.0001) // =======================================================
(PID.TID 0000.0001) // =======================================================
(PID.TID 0000.0001) // Begin MONITOR EXF statistics
(PID.TID 0000.0001) // =======================================================
(PID.TID 0000.0001) %MON exf_tsnumber                 =                    12
(PID.TID 0000.0001) %MON exf_time_sec                 =   2.8800000000000E+03
(PID.TID 0000.0001) %MON exf_ustress_max              =   5.0503722962826E-01
(PID.TID 0000.0001) %MON exf_ustress_min              =  -3.2901281609136E-01
(PID.TID 0000.0001) %MON exf_ustress_mean             =   6.8980614333349E-02
(PID.TID 0000.0001) %MON exf_ustress_sd               =   1.3984212689210E-01
(PID.TID 0000.0001) %MON exf_ustress_del2             =   3.0964814496457E-07
(PID.TID 0000.0001) %MON exf_vstress_max              =   5.6748315054937E-01
(PID.TID 0000.0001) %MON exf_vstress_min              =  -1.7611026165761E-01
(PID.TID 0000.0001) %MON exf_vstress_mean             =   9.6567095108935E-02
(PID.TID 0000.0001) %MON exf_vstress_sd               =   1.3421634688018E-01
(PID.TID 0000.0001) %MON exf_vstress_del2             =   2.5451372521704E-07
(PID.TID 0000.0001) %MON exf_hflux_max                =   1.0556602759485E+03
(PID.TID 0000.0001) %MON exf_hflux_min                =  -1.2823047548830E+02
(PID.TID 0000.0001) %MON exf_hflux_mean               =   3.2211202634979E+02
(PID.TID 0000.0001) %MON exf_hflux_sd                 =   2.1000054062230E+02
(PID.TID 0000.0001) %MON exf_hflux_del2               =   8.6001054144252E-02
(PID.TID 0000.0001) %MON exf_sflux_max                =   2.2465546087521E-07
(PID.TID 0000.0001) %MON exf_sflux_min                =  -1.1170138873839E-06
(PID.TID 0000.0001) %MON exf_sflux_mean               =   4.1223818822661E-08
(PID.TID 0000.0001) %MON exf_sflux_sd                 =   1.1083026030435E-07
(PID.TID 0000.0001) %MON exf_sflux_del2               =   2.4416127532218E-11
(PID.TID 0000.0001) %MON exf_uwind_max                =   1.5558661081237E+01
(PID.TID 0000.0001) %MON exf_uwind_min                =  -1.3315913515911E+01
(PID.TID 0000.0001) %MON exf_uwind_mean               =   2.9085023229094E+00
(PID.TID 0000.0001) %MON exf_uwind_sd                 =   6.7821506787969E+00
(PID.TID 0000.0001) %MON exf_uwind_del2               =   1.6375532360476E-03
(PID.TID 0000.0001) %MON exf_vwind_max                =   1.4796444563841E+01
(PID.TID 0000.0001) %MON exf_vwind_min                =  -1.0420249078359E+01
(PID.TID 0000.0001) %MON exf_vwind_mean               =   4.5942519339338E+00
(PID.TID 0000.0001) %MON exf_vwind_sd                 =   5.9381777667251E+00
(PID.TID 0000.0001) %MON exf_vwind_del2               =   1.6791308023787E-03
(PID.TID 0000.0001) %MON exf_wspeed_max               =   1.8289207341132E+01
(PID.TID 0000.0001) %MON exf_wspeed_min               =   5.5017157597431E-02
(PID.TID 0000.0001) %MON exf_wspeed_mean              =   9.9083909910117E+00
(PID.TID 0000.0001) %MON exf_wspeed_sd                =   3.5566624218775E+00
(PID.TID 0000.0001) %MON exf_wspeed_del2              =   2.3453754688348E-03
(PID.TID 0000.0001) %MON exf_atemp_max                =   2.9778820715675E+02
(PID.TID 0000.0001) %MON exf_atemp_min                =   2.7436618576490E+02
(PID.TID 0000.0001) %MON exf_atemp_mean               =   2.8987837426692E+02
(PID.TID 0000.0001) %MON exf_atemp_sd                 =   4.2948825903997E+00
(PID.TID 0000.0001) %MON exf_atemp_del2               =   3.7038170441660E-03
(PID.TID 0000.0001) %MON exf_aqh_max                  =   1.4912429268163E-02
(PID.TID 0000.0001) %MON exf_aqh_min                  =   3.1311631456505E-03
(PID.TID 0000.0001) %MON exf_aqh_mean                 =   9.5839299328468E-03
(PID.TID 0000.0001) %MON exf_aqh_sd                   =   2.2514364613654E-03
(PID.TID 0000.0001) %MON exf_aqh_del2                 =   2.1298661166015E-06
(PID.TID 0000.0001) %MON exf_lwflux_max               =   1.5610563221479E+02
(PID.TID 0000.0001) %MON exf_lwflux_min               =  -3.5698411518959E+00
(PID.TID 0000.0001) %MON exf_lwflux_mean              =   7.2722085878110E+01
(PID.TID 0000.0001) %MON exf_lwflux_sd                =   2.8058209961288E+01
(PID.TID 0000.0001) %MON exf_lwflux_del2              =   1.7286090651325E-02
(PID.TID 0000.0001) %MON exf_evap_max                 =   2.4764452839679E-07
(PID.TID 0000.0001) %MON exf_evap_min                 =  -4.1180343944263E-08
(PID.TID 0000.0001) %MON exf_evap_mean                =   7.9109381917390E-08
(PID.TID 0000.0001) %MON exf_evap_sd                  =   5.5424721514051E-08
(PID.TID 0000.0001) %MON exf_evap_del2                =   2.1377116841719E-11
(PID.TID 0000.0001) %MON exf_precip_max               =   1.1154275209783E-06
(PID.TID 0000.0001) %MON exf_precip_min               =   0.0000000000000E+00
(PID.TID 0000.0001) %MON exf_precip_mean              =   3.6297082898294E-08
(PID.TID 0000.0001) %MON exf_precip_sd                =   8.5110327413792E-08
(PID.TID 0000.0001) %MON exf_precip_del2              =   1.8596784631214E-11
(PID.TID 0000.0001) %MON exf_swflux_max               =   0.0000000000000E+00
(PID.TID 0000.0001) %MON exf_swflux_min               =  -1.1073212141415E+01
(PID.TID 0000.0001) %MON exf_swflux_mean              =  -3.6880171912897E-01
(PID.TID 0000.0001) %MON exf_swflux_sd                =   1.1694574359233E+00
(PID.TID 0000.0001) %MON exf_swflux_del2              =   2.5296785528788E-04
(PID.TID 0000.0001) %MON exf_swdown_max               =   1.2303569046017E+01
(PID.TID 0000.0001) %MON exf_swdown_min               =   0.0000000000000E+00
(PID.TID 0000.0001) %MON exf_swdown_mean              =   4.0977968792107E-01
(PID.TID 0000.0001) %MON exf_swdown_sd                =   1.2993971510259E+00
(PID.TID 0000.0001) %MON exf_swdown_del2              =   2.8107539476431E-04
(PID.TID 0000.0001) %MON exf_lwdown_max               =   4.0298536726857E+02
(PID.TID 0000.0001) %MON exf_lwdown_min               =   2.4862566499082E+02
(PID.TID 0000.0001) %MON exf_lwdown_mean              =   3.4206347375493E+02
(PID.TID 0000.0001) %MON exf_lwdown_sd                =   2.7608944302982E+01
(PID.TID 0000.0001) %MON exf_lwdown_del2              =   7.4686498800176E-02
(PID.TID 0000.0001) %MON exf_apressure_max            =   1.0085626475669E+05
(PID.TID 0000.0001) %MON exf_apressure_min            =   9.5624256765196E+04
(PID.TID 0000.0001) %MON exf_apressure_mean           =   9.8975145061523E+04
(PID.TID 0000.0001) %MON exf_apressure_sd             =   1.2321355812036E+03
(PID.TID 0000.0001) %MON exf_apressure_del2           =   2.1654565542816E+01
(PID.TID 0000.0001) %MON exf_runoff_max               =   4.4374822325994E-08
(PID.TID 0000.0001) %MON exf_runoff_min               =   0.0000000000000E+00
(PID.TID 0000.0001) %MON exf_runoff_mean              =   1.5884801964352E-09
(PID.TID 0000.0001) %MON exf_runoff_sd                =   5.3901974500338E-09
(PID.TID 0000.0001) %MON exf_runoff_del2              =   1.2741192460478E-12
(PID.TID 0000.0001) // =======================================================
(PID.TID 0000.0001) // End MONITOR EXF statistics
(PID.TID 0000.0001) // =======================================================
 cg2d: Sum(rhs),rhsMax =   1.75193917029415E+03  6.30737163924447E-02
(PID.TID 0000.0001)      cg2d_init_res =   1.45938101463720E+00
(PID.TID 0000.0001)      cg2d_iters(min,last) =      -1     312
(PID.TID 0000.0001)      cg2d_last_res =   6.69993734671565E-12
(PID.TID 0000.0001) // =======================================================
(PID.TID 0000.0001) // Begin MONITOR dynamic field statistics
(PID.TID 0000.0001) // =======================================================
(PID.TID 0000.0001) %MON time_tsnumber                =                    13
(PID.TID 0000.0001) %MON time_secondsf                =   3.1200000000000E+03
(PID.TID 0000.0001) %MON dynstat_eta_max              =   7.4246124687181E-01
(PID.TID 0000.0001) %MON dynstat_eta_min              =  -1.1974372871740E+00
(PID.TID 0000.0001) %MON dynstat_eta_mean             =  -5.9578108760124E-02
(PID.TID 0000.0001) %MON dynstat_eta_sd               =   2.7058364562828E-01
(PID.TID 0000.0001) %MON dynstat_eta_del2             =   2.3756217769949E-06
(PID.TID 0000.0001) %MON dynstat_uvel_max             =   8.8687676097051E-01
(PID.TID 0000.0001) %MON dynstat_uvel_min             =  -2.6092093048848E+00
(PID.TID 0000.0001) %MON dynstat_uvel_mean            =   6.4757516294879E-03
(PID.TID 0000.0001) %MON dynstat_uvel_sd              =   5.0729060669101E-02
(PID.TID 0000.0001) %MON dynstat_uvel_del2            =   4.9592420209251E-07
(PID.TID 0000.0001) %MON dynstat_vvel_max             =   1.2715786572795E+00
(PID.TID 0000.0001) %MON dynstat_vvel_min             =  -7.0228900761191E-01
(PID.TID 0000.0001) %MON dynstat_vvel_mean            =   4.5428827584664E-03
(PID.TID 0000.0001) %MON dynstat_vvel_sd              =   5.0923541853451E-02
(PID.TID 0000.0001) %MON dynstat_vvel_del2            =   5.2687915781369E-07
(PID.TID 0000.0001) %MON dynstat_wvel_max             =   3.6730880256673E-02
(PID.TID 0000.0001) %MON dynstat_wvel_min             =  -3.2465943366424E-02
(PID.TID 0000.0001) %MON dynstat_wvel_mean            =  -1.7189631920668E-05
(PID.TID 0000.0001) %MON dynstat_wvel_sd              =   6.0860925185335E-04
(PID.TID 0000.0001) %MON dynstat_wvel_del2            =   7.1087513425056E-08
(PID.TID 0000.0001) %MON dynstat_theta_max            =   2.6137619807602E+01
(PID.TID 0000.0001) %MON dynstat_theta_min            =   1.4688655992022E+00
(PID.TID 0000.0001) %MON dynstat_theta_mean           =   5.5098731647421E+00
(PID.TID 0000.0001) %MON dynstat_theta_sd             =   4.7732768339795E+00
(PID.TID 0000.0001) %MON dynstat_theta_del2           =   4.0327148567797E-06
(PID.TID 0000.0001) %MON dynstat_salt_max             =   3.9148057593172E+01
(PID.TID 0000.0001) %MON dynstat_salt_min             =   3.3091435444873E+01
(PID.TID 0000.0001) %MON dynstat_salt_mean            =   3.5173366886951E+01
(PID.TID 0000.0001) %MON dynstat_salt_sd              =   3.7891933258281E-01
(PID.TID 0000.0001) %MON dynstat_salt_del2            =   5.2974681256440E-07
(PID.TID 0000.0001) %MON dynstat_sst_max              =   2.6127108598027E+01
(PID.TID 0000.0001) %MON dynstat_sst_min              =   3.8920800563497E+00
(PID.TID 0000.0001) %MON dynstat_sst_mean             =   1.9633224337810E+01
(PID.TID 0000.0001) %MON dynstat_sst_sd               =   3.6356529693114E+00
(PID.TID 0000.0001) %MON dynstat_sst_del2             =   1.9307014748087E-05
(PID.TID 0000.0001) %MON dynstat_sss_max              =   3.7335599955865E+01
(PID.TID 0000.0001) %MON dynstat_sss_min              =   3.3091435444873E+01
(PID.TID 0000.0001) %MON dynstat_sss_mean             =   3.5868593556238E+01
(PID.TID 0000.0001) %MON dynstat_sss_sd               =   4.8745183588626E-01
(PID.TID 0000.0001) %MON dynstat_sss_del2             =   4.9116191111215E-06
(PID.TID 0000.0001) %MON forcing_qnet_max             =   1.0714518311099E+03
(PID.TID 0000.0001) %MON forcing_qnet_min             =  -1.8592225059831E+02
(PID.TID 0000.0001) %MON forcing_qnet_mean            =   3.2641469061208E+02
(PID.TID 0000.0001) %MON forcing_qnet_sd              =   2.1585095086131E+02
(PID.TID 0000.0001) %MON forcing_qnet_del2            =   1.1812967207215E-03
(PID.TID 0000.0001) %MON forcing_qsw_max              =   0.0000000000000E+00
(PID.TID 0000.0001) %MON forcing_qsw_min              =  -1.1073212141415E+01
(PID.TID 0000.0001) %MON forcing_qsw_mean             =  -3.6880171912897E-01
(PID.TID 0000.0001) %MON forcing_qsw_sd               =   1.1694574359233E+00
(PID.TID 0000.0001) %MON forcing_qsw_del2             =   3.7661225385614E-06
(PID.TID 0000.0001) %MON forcing_empmr_max            =   2.2465546087521E-04
(PID.TID 0000.0001) %MON forcing_empmr_min            =  -1.1170138873839E-03
(PID.TID 0000.0001) %MON forcing_empmr_mean           =   4.1223818822661E-05
(PID.TID 0000.0001) %MON forcing_empmr_sd             =   1.1083026030435E-04
(PID.TID 0000.0001) %MON forcing_empmr_del2           =   9.7054476025810E-10
(PID.TID 0000.0001) %MON forcing_fu_max               =   5.0499373316580E-01
(PID.TID 0000.0001) %MON forcing_fu_min               =  -3.2897853722448E-01
(PID.TID 0000.0001) %MON forcing_fu_mean              =   6.9084979703946E-02
(PID.TID 0000.0001) %MON forcing_fu_sd                =   1.3985176539669E-01
(PID.TID 0000.0001) %MON forcing_fu_del2              =   2.8437378699731E-07
(PID.TID 0000.0001) %MON forcing_fv_max               =   5.6742992105323E-01
(PID.TID 0000.0001) %MON forcing_fv_min               =  -1.7609287968599E-01
(PID.TID 0000.0001) %MON forcing_fv_mean              =   9.6592409414789E-02
(PID.TID 0000.0001) %MON forcing_fv_sd                =   1.3422540064642E-01
(PID.TID 0000.0001) %MON forcing_fv_del2              =   2.2866716182677E-07
(PID.TID 0000.0001) %MON trAdv_CFL_u_max              =   1.6485870730567E-01
(PID.TID 0000.0001) %MON trAdv_CFL_v_max              =   7.7147646813005E-02
(PID.TID 0000.0001) %MON trAdv_CFL_w_max              =   5.1657368123551E-01
(PID.TID 0000.0001) %MON advcfl_uvel_max              =   1.6490819093636E-01
(PID.TID 0000.0001) %MON advcfl_vvel_max              =   7.7147647419725E-02
(PID.TID 0000.0001) %MON advcfl_wvel_max              =   5.0796411988159E-01
(PID.TID 0000.0001) %MON advcfl_W_hf_max              =   5.1657368123551E-01
(PID.TID 0000.0001) %MON pe_b_mean                    =  -1.3112651040770E-03
(PID.TID 0000.0001) %MON ke_max                       =   3.0827671465218E+00
(PID.TID 0000.0001) %MON ke_mean                      =   2.5954984129861E-03
(PID.TID 0000.0001) %MON ke_vol                       =   4.5818637829946E+16
(PID.TID 0000.0001) %MON vort_r_min                   =  -5.1421167025475E-04
(PID.TID 0000.0001) %MON vort_r_max                   =   7.5985111504099E-04
(PID.TID 0000.0001) %MON vort_a_mean                  =   8.2147621819508E-05
(PID.TID 0000.0001) %MON vort_a_sd                    =   1.0154755345015E-05
(PID.TID 0000.0001) %MON vort_p_mean                  =   8.4848844092313E-05
(PID.TID 0000.0001) %MON vort_p_sd                    =   3.4997832957946E-05
(PID.TID 0000.0001) %MON surfExpan_theta_mean         =  -4.4039849652331E-04
(PID.TID 0000.0001) %MON surfExpan_salt_mean          =  -1.0717245643544E-03
(PID.TID 0000.0001) // =======================================================
(PID.TID 0000.0001) // End MONITOR dynamic field statistics
(PID.TID 0000.0001) // =======================================================
(PID.TID 0000.0001) // =======================================================
(PID.TID 0000.0001) // Begin OBCS MONITOR field statistics
(PID.TID 0000.0001) // =======================================================
(PID.TID 0000.0001) %MON obc_E_uVel_max               =   2.6394455358251E-01
(PID.TID 0000.0001) %MON obc_E_uVel_min               =  -2.6092093048848E+00
(PID.TID 0000.0001) %MON obc_E_uVel_mean              =   6.3589287296538E-03
(PID.TID 0000.0001) %MON obc_E_uVel_sd                =   4.4895724959504E-02
(PID.TID 0000.0001) %MON obc_E_uVel_Int               =   1.2281634926464E+08
(PID.TID 0000.0001) %MON obc_W_uVel_max               =   3.2477727580144E-01
(PID.TID 0000.0001) %MON obc_W_uVel_min               =  -6.9401459732993E-01
(PID.TID 0000.0001) %MON obc_W_uVel_mean              =  -4.2532870981992E-03
(PID.TID 0000.0001) %MON obc_W_uVel_sd                =   8.6073964719732E-02
(PID.TID 0000.0001) %MON obc_W_uVel_Int               =  -2.5900954686995E+07
(PID.TID 0000.0001) %MON obc_N_vVel_max               =   3.0373765303130E-01
(PID.TID 0000.0001) %MON obc_N_vVel_min               =  -9.9801884482993E-02
(PID.TID 0000.0001) %MON obc_N_vVel_mean              =   2.0139768711300E-02
(PID.TID 0000.0001) %MON obc_N_vVel_sd                =   4.0786264655498E-02
(PID.TID 0000.0001) %MON obc_N_vVel_Int               =   1.6565870001434E+08
(PID.TID 0000.0001) %MON obc_S_vVel_max               =   4.7213572731788E-02
(PID.TID 0000.0001) %MON obc_S_vVel_min               =  -9.2693452423442E-02
(PID.TID 0000.0001) %MON obc_S_vVel_mean              =  -2.4325807701997E-03
(PID.TID 0000.0001) %MON obc_S_vVel_sd                =   1.1238385558838E-02
(PID.TID 0000.0001) %MON obc_S_vVel_Int               =  -2.7071947233609E+07
(PID.TID 0000.0001) %MON obc_E_theta_max              =   2.5543605574674E+01
(PID.TID 0000.0001) %MON obc_E_theta_min              =   1.4633007926210E+00
(PID.TID 0000.0001) %MON obc_E_theta_mean             =   5.4563352743462E+00
(PID.TID 0000.0001) %MON obc_E_theta_sd               =   5.6195556993690E+00
(PID.TID 0000.0001) %MON obc_W_theta_max              =   1.5385391265378E+01
(PID.TID 0000.0001) %MON obc_W_theta_min              =   1.8895913648355E+00
(PID.TID 0000.0001) %MON obc_W_theta_mean             =   4.2050691623348E+00
(PID.TID 0000.0001) %MON obc_W_theta_sd               =   2.6436699135534E+00
(PID.TID 0000.0001) %MON obc_N_theta_max              =   1.6389715716732E+01
(PID.TID 0000.0001) %MON obc_N_theta_min              =   2.0877670896997E+00
(PID.TID 0000.0001) %MON obc_N_theta_mean             =   5.8650323048588E+00
(PID.TID 0000.0001) %MON obc_N_theta_sd               =   3.8420658563847E+00
(PID.TID 0000.0001) %MON obc_S_theta_max              =   2.3210266937144E+01
(PID.TID 0000.0001) %MON obc_S_theta_min              =   1.8976912111064E+00
(PID.TID 0000.0001) %MON obc_S_theta_mean             =   5.4651217519925E+00
(PID.TID 0000.0001) %MON obc_S_theta_sd               =   4.8644826591902E+00
(PID.TID 0000.0001) %MON obc_E_salt_max               =   3.7284665070694E+01
(PID.TID 0000.0001) %MON obc_E_salt_min               =   3.4844694992682E+01
(PID.TID 0000.0001) %MON obc_E_salt_mean              =   3.5160049045897E+01
(PID.TID 0000.0001) %MON obc_E_salt_sd                =   4.6599347237605E-01
(PID.TID 0000.0001) %MON obc_W_salt_max               =   3.5867263448421E+01
(PID.TID 0000.0001) %MON obc_W_salt_min               =   3.3295085604278E+01
(PID.TID 0000.0001) %MON obc_W_salt_mean              =   3.4957939684359E+01
(PID.TID 0000.0001) %MON obc_W_salt_sd                =   2.4692010001187E-01
(PID.TID 0000.0001) %MON obc_N_salt_max               =   3.5910862339236E+01
(PID.TID 0000.0001) %MON obc_N_salt_min               =   3.4917014847655E+01
(PID.TID 0000.0001) %MON obc_N_salt_mean              =   3.5230513123510E+01
(PID.TID 0000.0001) %MON obc_N_salt_sd                =   3.0056392254410E-01
(PID.TID 0000.0001) %MON obc_S_salt_max               =   3.7318257133628E+01
(PID.TID 0000.0001) %MON obc_S_salt_min               =   3.4884963735815E+01
(PID.TID 0000.0001) %MON obc_S_salt_mean              =   3.5182816343994E+01
(PID.TID 0000.0001) %MON obc_S_salt_sd                =   4.4105615143644E-01
(PID.TID 0000.0001) // =======================================================
(PID.TID 0000.0001) // End OBCS MONITOR field statistics
(PID.TID 0000.0001) // =======================================================
(PID.TID 0000.0001) // =======================================================
(PID.TID 0000.0001) // Begin MONITOR EXF statistics
(PID.TID 0000.0001) // =======================================================
(PID.TID 0000.0001) %MON exf_tsnumber                 =                    13
(PID.TID 0000.0001) %MON exf_time_sec                 =   3.1200000000000E+03
(PID.TID 0000.0001) %MON exf_ustress_max              =   5.0302019650651E-01
(PID.TID 0000.0001) %MON exf_ustress_min              =  -3.3171846903318E-01
(PID.TID 0000.0001) %MON exf_ustress_mean             =   6.8706468354398E-02
(PID.TID 0000.0001) %MON exf_ustress_sd               =   1.3980249559164E-01
(PID.TID 0000.0001) %MON exf_ustress_del2             =   3.1304977728950E-07
(PID.TID 0000.0001) %MON exf_vstress_max              =   5.6548634427598E-01
(PID.TID 0000.0001) %MON exf_vstress_min              =  -1.7569447848281E-01
(PID.TID 0000.0001) %MON exf_vstress_mean             =   9.6373384097500E-02
(PID.TID 0000.0001) %MON exf_vstress_sd               =   1.3410365351677E-01
(PID.TID 0000.0001) %MON exf_vstress_del2             =   2.5531049209487E-07
(PID.TID 0000.0001) %MON exf_hflux_max                =   1.0544889410599E+03
(PID.TID 0000.0001) %MON exf_hflux_min                =  -1.2743422978657E+02
(PID.TID 0000.0001) %MON exf_hflux_mean               =   3.2192837077117E+02
(PID.TID 0000.0001) %MON exf_hflux_sd                 =   2.0976220418998E+02
(PID.TID 0000.0001) %MON exf_hflux_del2               =   8.5929551986667E-02
(PID.TID 0000.0001) %MON exf_sflux_max                =   2.2426551423707E-07
(PID.TID 0000.0001) %MON exf_sflux_min                =  -1.1302712086388E-06
(PID.TID 0000.0001) %MON exf_sflux_mean               =   4.1067192920591E-08
(PID.TID 0000.0001) %MON exf_sflux_sd                 =   1.1149601743283E-07
(PID.TID 0000.0001) %MON exf_sflux_del2               =   2.4518150221487E-11
(PID.TID 0000.0001) %MON exf_uwind_max                =   1.5552101504401E+01
(PID.TID 0000.0001) %MON exf_uwind_min                =  -1.3360945122715E+01
(PID.TID 0000.0001) %MON exf_uwind_mean               =   2.8999887482946E+00
(PID.TID 0000.0001) %MON exf_uwind_sd                 =   6.7870411831007E+00
(PID.TID 0000.0001) %MON exf_uwind_del2               =   1.6377873697877E-03
(PID.TID 0000.0001) %MON exf_vwind_max                =   1.4779201500366E+01
(PID.TID 0000.0001) %MON exf_vwind_min                =  -1.0403756817462E+01
(PID.TID 0000.0001) %MON exf_vwind_mean               =   4.5881058842124E+00
(PID.TID 0000.0001) %MON exf_vwind_sd                 =   5.9345369818302E+00
(PID.TID 0000.0001) %MON exf_vwind_del2               =   1.6779291653787E-03
(PID.TID 0000.0001) %MON exf_wspeed_max               =   1.8275532896351E+01
(PID.TID 0000.0001) %MON exf_wspeed_min               =   4.0151575723116E-02
(PID.TID 0000.0001) %MON exf_wspeed_mean              =   9.9048495499261E+00
(PID.TID 0000.0001) %MON exf_wspeed_sd                =   3.5548928180923E+00
(PID.TID 0000.0001) %MON exf_wspeed_del2              =   2.3446793204127E-03
(PID.TID 0000.0001) %MON exf_atemp_max                =   2.9778775312816E+02
(PID.TID 0000.0001) %MON exf_atemp_min                =   2.7437067949398E+02
(PID.TID 0000.0001) %MON exf_atemp_mean               =   2.8987844778069E+02
(PID.TID 0000.0001) %MON exf_atemp_sd                 =   4.2917237306297E+00
(PID.TID 0000.0001) %MON exf_atemp_del2               =   3.7038090901854E-03
(PID.TID 0000.0001) %MON exf_aqh_max                  =   1.4934033930000E-02
(PID.TID 0000.0001) %MON exf_aqh_min                  =   3.1387102340020E-03
(PID.TID 0000.0001) %MON exf_aqh_mean                 =   9.5835467508077E-03
(PID.TID 0000.0001) %MON exf_aqh_sd                   =   2.2494375487300E-03
(PID.TID 0000.0001) %MON exf_aqh_del2                 =   2.1297499294189E-06
(PID.TID 0000.0001) %MON exf_lwflux_max               =   1.5589540392981E+02
(PID.TID 0000.0001) %MON exf_lwflux_min               =  -4.2297512401616E+00
(PID.TID 0000.0001) %MON exf_lwflux_mean              =   7.2716949064186E+01
(PID.TID 0000.0001) %MON exf_lwflux_sd                =   2.8099077486347E+01
(PID.TID 0000.0001) %MON exf_lwflux_del2              =   1.7287102764740E-02
(PID.TID 0000.0001) %MON exf_evap_max                 =   2.4738582960605E-07
(PID.TID 0000.0001) %MON exf_evap_min                 =  -4.1043839860508E-08
(PID.TID 0000.0001) %MON exf_evap_mean                =   7.9047614240861E-08
(PID.TID 0000.0001) %MON exf_evap_sd                  =   5.5351664544265E-08
(PID.TID 0000.0001) %MON exf_evap_del2                =   2.1355967581222E-11
(PID.TID 0000.0001) %MON exf_precip_max               =   1.1285378305416E-06
(PID.TID 0000.0001) %MON exf_precip_min               =   0.0000000000000E+00
(PID.TID 0000.0001) %MON exf_precip_mean              =   3.6391941123835E-08
(PID.TID 0000.0001) %MON exf_precip_sd                =   8.5882966635596E-08
(PID.TID 0000.0001) %MON exf_precip_del2              =   1.8742853569072E-11
(PID.TID 0000.0001) %MON exf_swflux_max               =   0.0000000000000E+00
(PID.TID 0000.0001) %MON exf_swflux_min               =  -1.0018620508899E+01
(PID.TID 0000.0001) %MON exf_swflux_mean              =  -3.3367774587859E-01
(PID.TID 0000.0001) %MON exf_swflux_sd                =   1.0580805372639E+00
(PID.TID 0000.0001) %MON exf_swflux_del2              =   2.2887567859380E-04
(PID.TID 0000.0001) %MON exf_swdown_max               =   1.1131800565444E+01
(PID.TID 0000.0001) %MON exf_swdown_min               =   0.0000000000000E+00
(PID.TID 0000.0001) %MON exf_swdown_mean              =   3.7075305097621E-01
(PID.TID 0000.0001) %MON exf_swdown_sd                =   1.1756450414043E+00
(PID.TID 0000.0001) %MON exf_swdown_del2              =   2.5430630954866E-04
(PID.TID 0000.0001) %MON exf_lwdown_max               =   4.0308736100292E+02
(PID.TID 0000.0001) %MON exf_lwdown_min               =   2.4856573372513E+02
(PID.TID 0000.0001) %MON exf_lwdown_mean              =   3.4206445183599E+02
(PID.TID 0000.0001) %MON exf_lwdown_sd                =   2.7634641539191E+01
(PID.TID 0000.0001) %MON exf_lwdown_del2              =   7.4687598170151E-02
(PID.TID 0000.0001) %MON exf_apressure_max            =   1.0078030057203E+05
(PID.TID 0000.0001) %MON exf_apressure_min            =   9.5674443339004E+04
(PID.TID 0000.0001) %MON exf_apressure_mean           =   9.8952560773188E+04
(PID.TID 0000.0001) %MON exf_apressure_sd             =   1.2063242412466E+03
(PID.TID 0000.0001) %MON exf_apressure_del2           =   2.1649675412521E+01
(PID.TID 0000.0001) %MON exf_runoff_max               =   4.4374822325994E-08
(PID.TID 0000.0001) %MON exf_runoff_min               =   0.0000000000000E+00
(PID.TID 0000.0001) %MON exf_runoff_mean              =   1.5884801964352E-09
(PID.TID 0000.0001) %MON exf_runoff_sd                =   5.3901974500338E-09
(PID.TID 0000.0001) %MON exf_runoff_del2              =   1.2741192460478E-12
(PID.TID 0000.0001) // =======================================================
(PID.TID 0000.0001) // End MONITOR EXF statistics
(PID.TID 0000.0001) // =======================================================
 cg2d: Sum(rhs),rhsMax =   1.97722652174757E+03  6.67312171928008E-02
(PID.TID 0000.0001)      cg2d_init_res =   1.44337903156414E+00
(PID.TID 0000.0001)      cg2d_iters(min,last) =      -1     312
(PID.TID 0000.0001)      cg2d_last_res =   6.46530695463710E-12
(PID.TID 0000.0001) // =======================================================
(PID.TID 0000.0001) // Begin MONITOR dynamic field statistics
(PID.TID 0000.0001) // =======================================================
(PID.TID 0000.0001) %MON time_tsnumber                =                    14
(PID.TID 0000.0001) %MON time_secondsf                =   3.3600000000000E+03
(PID.TID 0000.0001) %MON dynstat_eta_max              =   7.6590683602818E-01
(PID.TID 0000.0001) %MON dynstat_eta_min              =  -1.3192861610655E+00
(PID.TID 0000.0001) %MON dynstat_eta_mean             =  -6.7239444584312E-02
(PID.TID 0000.0001) %MON dynstat_eta_sd               =   2.7986771058776E-01
(PID.TID 0000.0001) %MON dynstat_eta_del2             =   2.4333392535739E-06
(PID.TID 0000.0001) %MON dynstat_uvel_max             =   8.8513329201877E-01
(PID.TID 0000.0001) %MON dynstat_uvel_min             =  -2.6687809723563E+00
(PID.TID 0000.0001) %MON dynstat_uvel_mean            =   6.6508579634825E-03
(PID.TID 0000.0001) %MON dynstat_uvel_sd              =   5.0800772871867E-02
(PID.TID 0000.0001) %MON dynstat_uvel_del2            =   5.0367146221936E-07
(PID.TID 0000.0001) %MON dynstat_vvel_max             =   1.2670701730862E+00
(PID.TID 0000.0001) %MON dynstat_vvel_min             =  -7.0284216733089E-01
(PID.TID 0000.0001) %MON dynstat_vvel_mean            =   4.5485863069535E-03
(PID.TID 0000.0001) %MON dynstat_vvel_sd              =   5.0925468372118E-02
(PID.TID 0000.0001) %MON dynstat_vvel_del2            =   5.3471650689374E-07
(PID.TID 0000.0001) %MON dynstat_wvel_max             =   3.8080146449512E-02
(PID.TID 0000.0001) %MON dynstat_wvel_min             =  -3.2895252489927E-02
(PID.TID 0000.0001) %MON dynstat_wvel_mean            =  -1.8257733040505E-05
(PID.TID 0000.0001) %MON dynstat_wvel_sd              =   6.1013600219356E-04
(PID.TID 0000.0001) %MON dynstat_wvel_del2            =   7.0476772019033E-08
(PID.TID 0000.0001) %MON dynstat_theta_max            =   2.6138577931527E+01
(PID.TID 0000.0001) %MON dynstat_theta_min            =   1.4688658201454E+00
(PID.TID 0000.0001) %MON dynstat_theta_mean           =   5.5098855726015E+00
(PID.TID 0000.0001) %MON dynstat_theta_sd             =   4.7732758317612E+00
(PID.TID 0000.0001) %MON dynstat_theta_del2           =   4.0336306391492E-06
(PID.TID 0000.0001) %MON dynstat_salt_max             =   3.9143636881657E+01
(PID.TID 0000.0001) %MON dynstat_salt_min             =   3.3091577997066E+01
(PID.TID 0000.0001) %MON dynstat_salt_mean            =   3.5173367339963E+01
(PID.TID 0000.0001) %MON dynstat_salt_sd              =   3.7892075175218E-01
(PID.TID 0000.0001) %MON dynstat_salt_del2            =   5.3180554371367E-07
(PID.TID 0000.0001) %MON dynstat_sst_max              =   2.6127755520034E+01
(PID.TID 0000.0001) %MON dynstat_sst_min              =   3.8760410364712E+00
(PID.TID 0000.0001) %MON dynstat_sst_mean             =   1.9632500240796E+01
(PID.TID 0000.0001) %MON dynstat_sst_sd               =   3.6355477164050E+00
(PID.TID 0000.0001) %MON dynstat_sst_del2             =   1.9360180204856E-05
(PID.TID 0000.0001) %MON dynstat_sss_max              =   3.7335662565485E+01
(PID.TID 0000.0001) %MON dynstat_sss_min              =   3.3091577997066E+01
(PID.TID 0000.0001) %MON dynstat_sss_mean             =   3.5868622814734E+01
(PID.TID 0000.0001) %MON dynstat_sss_sd               =   4.8746323049529E-01
(PID.TID 0000.0001) %MON dynstat_sss_del2             =   4.9061180232030E-06
(PID.TID 0000.0001) %MON forcing_qnet_max             =   1.0702396317182E+03
(PID.TID 0000.0001) %MON forcing_qnet_min             =  -1.8780091339687E+02
(PID.TID 0000.0001) %MON forcing_qnet_mean            =   3.2621883685758E+02
(PID.TID 0000.0001) %MON forcing_qnet_sd              =   2.1562399345096E+02
(PID.TID 0000.0001) %MON forcing_qnet_del2            =   1.1814503003222E-03
(PID.TID 0000.0001) %MON forcing_qsw_max              =   0.0000000000000E+00
(PID.TID 0000.0001) %MON forcing_qsw_min              =  -1.0018620508899E+01
(PID.TID 0000.0001) %MON forcing_qsw_mean             =  -3.3367774587859E-01
(PID.TID 0000.0001) %MON forcing_qsw_sd               =   1.0580805372639E+00
(PID.TID 0000.0001) %MON forcing_qsw_del2             =   3.4074442015555E-06
(PID.TID 0000.0001) %MON forcing_empmr_max            =   2.2426551423707E-04
(PID.TID 0000.0001) %MON forcing_empmr_min            =  -1.1302712086388E-03
(PID.TID 0000.0001) %MON forcing_empmr_mean           =   4.1067192920591E-05
(PID.TID 0000.0001) %MON forcing_empmr_sd             =   1.1149601743283E-04
(PID.TID 0000.0001) %MON forcing_empmr_del2           =   9.8628461945846E-10
(PID.TID 0000.0001) %MON forcing_fu_max               =   5.0299910947936E-01
(PID.TID 0000.0001) %MON forcing_fu_min               =  -3.3168301461684E-01
(PID.TID 0000.0001) %MON forcing_fu_mean              =   6.8810362179077E-02
(PID.TID 0000.0001) %MON forcing_fu_sd                =   1.3981190713382E-01
(PID.TID 0000.0001) %MON forcing_fu_del2              =   2.8658292911062E-07
(PID.TID 0000.0001) %MON forcing_fv_max               =   5.6544733175026E-01
(PID.TID 0000.0001) %MON forcing_fv_min               =  -1.7567818357741E-01
(PID.TID 0000.0001) %MON forcing_fv_mean              =   9.6398417620664E-02
(PID.TID 0000.0001) %MON forcing_fv_sd                =   1.3411268237924E-01
(PID.TID 0000.0001) %MON forcing_fv_del2              =   2.2866118004805E-07
(PID.TID 0000.0001) %MON trAdv_CFL_u_max              =   1.6862264762009E-01
(PID.TID 0000.0001) %MON trAdv_CFL_v_max              =   7.6874113638938E-02
(PID.TID 0000.0001) %MON trAdv_CFL_w_max              =   5.2041501464935E-01
(PID.TID 0000.0001) %MON advcfl_uvel_max              =   1.6867326102690E-01
(PID.TID 0000.0001) %MON advcfl_vvel_max              =   7.6874114243506E-02
(PID.TID 0000.0001) %MON advcfl_wvel_max              =   5.1174143107186E-01
(PID.TID 0000.0001) %MON advcfl_W_hf_max              =   5.2041501464935E-01
(PID.TID 0000.0001) %MON pe_b_mean                    =  -1.4851874017625E-03
(PID.TID 0000.0001) %MON ke_max                       =   3.2357907694513E+00
(PID.TID 0000.0001) %MON ke_mean                      =   2.6003755001607E-03
(PID.TID 0000.0001) %MON ke_vol                       =   4.5818637829946E+16
(PID.TID 0000.0001) %MON vort_r_min                   =  -5.1308902915102E-04
(PID.TID 0000.0001) %MON vort_r_max                   =   7.7658281620698E-04
(PID.TID 0000.0001) %MON vort_a_mean                  =   8.2147620987597E-05
(PID.TID 0000.0001) %MON vort_a_sd                    =   1.0158022521909E-05
(PID.TID 0000.0001) %MON vort_p_mean                  =   8.4848843233047E-05
(PID.TID 0000.0001) %MON vort_p_sd                    =   3.5002031496313E-05
(PID.TID 0000.0001) %MON surfExpan_theta_mean         =  -4.7859754440480E-04
(PID.TID 0000.0001) %MON surfExpan_salt_mean          =  -1.1335239186570E-03
(PID.TID 0000.0001) // =======================================================
(PID.TID 0000.0001) // End MONITOR dynamic field statistics
(PID.TID 0000.0001) // =======================================================
(PID.TID 0000.0001) // =======================================================
(PID.TID 0000.0001) // Begin OBCS MONITOR field statistics
(PID.TID 0000.0001) // =======================================================
(PID.TID 0000.0001) %MON obc_E_uVel_max               =   2.6399719197324E-01
(PID.TID 0000.0001) %MON obc_E_uVel_min               =  -2.6687809723563E+00
(PID.TID 0000.0001) %MON obc_E_uVel_mean              =   6.8123601506168E-03
(PID.TID 0000.0001) %MON obc_E_uVel_sd                =   4.5012018973000E-02
(PID.TID 0000.0001) %MON obc_E_uVel_Int               =   1.3157392371343E+08
(PID.TID 0000.0001) %MON obc_W_uVel_max               =   3.2513879666356E-01
(PID.TID 0000.0001) %MON obc_W_uVel_min               =  -6.9381863573148E-01
(PID.TID 0000.0001) %MON obc_W_uVel_mean              =  -4.0275239245093E-03
(PID.TID 0000.0001) %MON obc_W_uVel_sd                =   8.5983655733425E-02
(PID.TID 0000.0001) %MON obc_W_uVel_Int               =  -2.4526139962118E+07
(PID.TID 0000.0001) %MON obc_N_vVel_max               =   3.0370853518000E-01
(PID.TID 0000.0001) %MON obc_N_vVel_min               =  -9.9600094365213E-02
(PID.TID 0000.0001) %MON obc_N_vVel_mean              =   2.0167622081880E-02
(PID.TID 0000.0001) %MON obc_N_vVel_sd                =   4.0820430358892E-02
(PID.TID 0000.0001) %MON obc_N_vVel_Int               =   1.6588780657597E+08
(PID.TID 0000.0001) %MON obc_S_vVel_max               =   4.6254233764836E-02
(PID.TID 0000.0001) %MON obc_S_vVel_min               =  -9.3127533793319E-02
(PID.TID 0000.0001) %MON obc_S_vVel_mean              =  -3.4846313989640E-03
(PID.TID 0000.0001) %MON obc_S_vVel_sd                =   1.1206538009147E-02
(PID.TID 0000.0001) %MON obc_S_vVel_Int               =  -3.8780113086886E+07
(PID.TID 0000.0001) %MON obc_E_theta_max              =   2.5543502825894E+01
(PID.TID 0000.0001) %MON obc_E_theta_min              =   1.4633011889082E+00
(PID.TID 0000.0001) %MON obc_E_theta_mean             =   5.4563349362905E+00
(PID.TID 0000.0001) %MON obc_E_theta_sd               =   5.6195520860743E+00
(PID.TID 0000.0001) %MON obc_W_theta_max              =   1.5385271351767E+01
(PID.TID 0000.0001) %MON obc_W_theta_min              =   1.8895914139009E+00
(PID.TID 0000.0001) %MON obc_W_theta_mean             =   4.2050569418159E+00
(PID.TID 0000.0001) %MON obc_W_theta_sd               =   2.6436496729516E+00
(PID.TID 0000.0001) %MON obc_N_theta_max              =   1.6389627614545E+01
(PID.TID 0000.0001) %MON obc_N_theta_min              =   2.0877638145258E+00
(PID.TID 0000.0001) %MON obc_N_theta_mean             =   5.8650285012668E+00
(PID.TID 0000.0001) %MON obc_N_theta_sd               =   3.8420599652757E+00
(PID.TID 0000.0001) %MON obc_S_theta_max              =   2.3210183000053E+01
(PID.TID 0000.0001) %MON obc_S_theta_min              =   1.8976912003686E+00
(PID.TID 0000.0001) %MON obc_S_theta_mean             =   5.4651201365522E+00
(PID.TID 0000.0001) %MON obc_S_theta_sd               =   4.8644782463963E+00
(PID.TID 0000.0001) %MON obc_E_salt_max               =   3.7284653001176E+01
(PID.TID 0000.0001) %MON obc_E_salt_min               =   3.4844695044902E+01
(PID.TID 0000.0001) %MON obc_E_salt_mean              =   3.5160049115756E+01
(PID.TID 0000.0001) %MON obc_E_salt_sd                =   4.6599350200619E-01
(PID.TID 0000.0001) %MON obc_W_salt_max               =   3.5867263951477E+01
(PID.TID 0000.0001) %MON obc_W_salt_min               =   3.3295091106912E+01
(PID.TID 0000.0001) %MON obc_W_salt_mean              =   3.4957939159056E+01
(PID.TID 0000.0001) %MON obc_W_salt_sd                =   2.4691936603318E-01
(PID.TID 0000.0001) %MON obc_N_salt_max               =   3.5910861930873E+01
(PID.TID 0000.0001) %MON obc_N_salt_min               =   3.4917014833729E+01
(PID.TID 0000.0001) %MON obc_N_salt_mean              =   3.5230512997295E+01
(PID.TID 0000.0001) %MON obc_N_salt_sd                =   3.0056400148515E-01
(PID.TID 0000.0001) %MON obc_S_salt_max               =   3.7318250249244E+01
(PID.TID 0000.0001) %MON obc_S_salt_min               =   3.4884963731986E+01
(PID.TID 0000.0001) %MON obc_S_salt_mean              =   3.5182816026030E+01
(PID.TID 0000.0001) %MON obc_S_salt_sd                =   4.4105511458385E-01
(PID.TID 0000.0001) // =======================================================
(PID.TID 0000.0001) // End OBCS MONITOR field statistics
(PID.TID 0000.0001) // =======================================================
(PID.TID 0000.0001) // =======================================================
(PID.TID 0000.0001) // Begin MONITOR EXF statistics
(PID.TID 0000.0001) // =======================================================
(PID.TID 0000.0001) %MON exf_tsnumber                 =                    14
(PID.TID 0000.0001) %MON exf_time_sec                 =   3.3600000000000E+03
(PID.TID 0000.0001) %MON exf_ustress_max              =   5.0104825591186E-01
(PID.TID 0000.0001) %MON exf_ustress_min              =  -3.3443774569231E-01
(PID.TID 0000.0001) %MON exf_ustress_mean             =   6.8437052788483E-02
(PID.TID 0000.0001) %MON exf_ustress_sd               =   1.3978089041382E-01
(PID.TID 0000.0001) %MON exf_ustress_del2             =   3.1703186332022E-07
(PID.TID 0000.0001) %MON exf_vstress_max              =   5.6351683031486E-01
(PID.TID 0000.0001) %MON exf_vstress_min              =  -1.7529022853092E-01
(PID.TID 0000.0001) %MON exf_vstress_mean             =   9.6185731573650E-02
(PID.TID 0000.0001) %MON exf_vstress_sd               =   1.3400746594065E-01
(PID.TID 0000.0001) %MON exf_vstress_del2             =   2.5600304724752E-07
(PID.TID 0000.0001) %MON exf_hflux_max                =   1.0533448248695E+03
(PID.TID 0000.0001) %MON exf_hflux_min                =  -1.2664381535105E+02
(PID.TID 0000.0001) %MON exf_hflux_mean               =   3.2175536151484E+02
(PID.TID 0000.0001) %MON exf_hflux_sd                 =   2.0953377412036E+02
(PID.TID 0000.0001) %MON exf_hflux_del2               =   8.5861807799260E-02
(PID.TID 0000.0001) %MON exf_sflux_max                =   2.2388061100286E-07
(PID.TID 0000.0001) %MON exf_sflux_min                =  -1.1435072416358E-06
(PID.TID 0000.0001) %MON exf_sflux_mean               =   4.0913695072830E-08
(PID.TID 0000.0001) %MON exf_sflux_sd                 =   1.1218624414371E-07
(PID.TID 0000.0001) %MON exf_sflux_del2               =   2.4625381708967E-11
(PID.TID 0000.0001) %MON exf_uwind_max                =   1.5545662644526E+01
(PID.TID 0000.0001) %MON exf_uwind_min                =  -1.3407225447264E+01
(PID.TID 0000.0001) %MON exf_uwind_mean               =   2.8915258560603E+00
(PID.TID 0000.0001) %MON exf_uwind_sd                 =   6.7921379636851E+00
(PID.TID 0000.0001) %MON exf_uwind_del2               =   1.6380749699725E-03
(PID.TID 0000.0001) %MON exf_vwind_max                =   1.4762634499267E+01
(PID.TID 0000.0001) %MON exf_vwind_min                =  -1.0387454216916E+01
(PID.TID 0000.0001) %MON exf_vwind_mean               =   4.5820028810279E+00
(PID.TID 0000.0001) %MON exf_vwind_sd                 =   5.9312472810893E+00
(PID.TID 0000.0001) %MON exf_vwind_del2               =   1.6768007030707E-03
(PID.TID 0000.0001) %MON exf_wspeed_max               =   1.8262063981970E+01
(PID.TID 0000.0001) %MON exf_wspeed_min               =   6.3509380912240E-02
(PID.TID 0000.0001) %MON exf_wspeed_mean              =   9.9016164133159E+00
(PID.TID 0000.0001) %MON exf_wspeed_sd                =   3.5533782529768E+00
(PID.TID 0000.0001) %MON exf_wspeed_del2              =   2.3440730894083E-03
(PID.TID 0000.0001) %MON exf_atemp_max                =   2.9778729909957E+02
(PID.TID 0000.0001) %MON exf_atemp_min                =   2.7437517322307E+02
(PID.TID 0000.0001) %MON exf_atemp_mean               =   2.8987852129445E+02
(PID.TID 0000.0001) %MON exf_atemp_sd                 =   4.2885991138646E+00
(PID.TID 0000.0001) %MON exf_atemp_del2               =   3.7038033174382E-03
(PID.TID 0000.0001) %MON exf_aqh_max                  =   1.4955638591838E-02
(PID.TID 0000.0001) %MON exf_aqh_min                  =   3.1454097175368E-03
(PID.TID 0000.0001) %MON exf_aqh_mean                 =   9.5831635687687E-03
(PID.TID 0000.0001) %MON exf_aqh_sd                   =   2.2474870237113E-03
(PID.TID 0000.0001) %MON exf_aqh_del2                 =   2.1296363948058E-06
(PID.TID 0000.0001) %MON exf_lwflux_max               =   1.5568529009213E+02
(PID.TID 0000.0001) %MON exf_lwflux_min               =  -4.8889891045360E+00
(PID.TID 0000.0001) %MON exf_lwflux_mean              =   7.2711978706554E+01
(PID.TID 0000.0001) %MON exf_lwflux_sd                =   2.8142869903054E+01
(PID.TID 0000.0001) %MON exf_lwflux_del2              =   1.7288407542321E-02
(PID.TID 0000.0001) %MON exf_evap_max                 =   2.4713402962579E-07
(PID.TID 0000.0001) %MON exf_evap_min                 =  -4.0908934765174E-08
(PID.TID 0000.0001) %MON exf_evap_mean                =   7.8988974618641E-08
(PID.TID 0000.0001) %MON exf_evap_sd                  =   5.5281417385023E-08
(PID.TID 0000.0001) %MON exf_evap_del2                =   2.1335865799927E-11
(PID.TID 0000.0001) %MON exf_precip_max               =   1.1416481401050E-06
(PID.TID 0000.0001) %MON exf_precip_min               =   0.0000000000000E+00
(PID.TID 0000.0001) %MON exf_precip_mean              =   3.6486799349376E-08
(PID.TID 0000.0001) %MON exf_precip_sd                =   8.6682229387088E-08
(PID.TID 0000.0001) %MON exf_precip_del2              =   1.8894158715420E-11
(PID.TID 0000.0001) %MON exf_swflux_max               =   0.0000000000000E+00
(PID.TID 0000.0001) %MON exf_swflux_min               =  -8.9640288763835E+00
(PID.TID 0000.0001) %MON exf_swflux_mean              =  -2.9855377262821E-01
(PID.TID 0000.0001) %MON exf_swflux_sd                =   9.4670363860455E-01
(PID.TID 0000.0001) %MON exf_swflux_del2              =   2.0478350189971E-04
(PID.TID 0000.0001) %MON exf_swdown_max               =   9.9600320848706E+00
(PID.TID 0000.0001) %MON exf_swdown_min               =   0.0000000000000E+00
(PID.TID 0000.0001) %MON exf_swdown_mean              =   3.3172641403135E-01
(PID.TID 0000.0001) %MON exf_swdown_sd                =   1.0518929317828E+00
(PID.TID 0000.0001) %MON exf_swdown_del2              =   2.2753722433301E-04
(PID.TID 0000.0001) %MON exf_lwdown_max               =   4.0318935473728E+02
(PID.TID 0000.0001) %MON exf_lwdown_min               =   2.4850580245944E+02
(PID.TID 0000.0001) %MON exf_lwdown_mean              =   3.4206542991705E+02
(PID.TID 0000.0001) %MON exf_lwdown_sd                =   2.7663489295796E+01
(PID.TID 0000.0001) %MON exf_lwdown_del2              =   7.4688760079379E-02
(PID.TID 0000.0001) %MON exf_apressure_max            =   1.0070433638736E+05
(PID.TID 0000.0001) %MON exf_apressure_min            =   9.5724629912812E+04
(PID.TID 0000.0001) %MON exf_apressure_mean           =   9.8929976484852E+04
(PID.TID 0000.0001) %MON exf_apressure_sd             =   1.1813203136059E+03
(PID.TID 0000.0001) %MON exf_apressure_del2           =   2.1644788776001E+01
(PID.TID 0000.0001) %MON exf_runoff_max               =   4.4374822325994E-08
(PID.TID 0000.0001) %MON exf_runoff_min               =   0.0000000000000E+00
(PID.TID 0000.0001) %MON exf_runoff_mean              =   1.5884801964352E-09
(PID.TID 0000.0001) %MON exf_runoff_sd                =   5.3901974500338E-09
(PID.TID 0000.0001) %MON exf_runoff_del2              =   1.2741192460478E-12
(PID.TID 0000.0001) // =======================================================
(PID.TID 0000.0001) // End MONITOR EXF statistics
(PID.TID 0000.0001) // =======================================================
 cg2d: Sum(rhs),rhsMax =   2.21430443685810E+03  6.62563297442708E-02
(PID.TID 0000.0001)      cg2d_init_res =   1.47654066219610E+00
(PID.TID 0000.0001)      cg2d_iters(min,last) =      -1     311
(PID.TID 0000.0001)      cg2d_last_res =   6.85958213678072E-12
(PID.TID 0000.0001) // =======================================================
(PID.TID 0000.0001) // Begin MONITOR dynamic field statistics
(PID.TID 0000.0001) // =======================================================
(PID.TID 0000.0001) %MON time_tsnumber                =                    15
(PID.TID 0000.0001) %MON time_secondsf                =   3.6000000000000E+03
(PID.TID 0000.0001) %MON dynstat_eta_max              =   7.7530875429455E-01
(PID.TID 0000.0001) %MON dynstat_eta_min              =  -1.4006577389512E+00
(PID.TID 0000.0001) %MON dynstat_eta_mean             =  -7.5301741523941E-02
(PID.TID 0000.0001) %MON dynstat_eta_sd               =   2.8858761705389E-01
(PID.TID 0000.0001) %MON dynstat_eta_del2             =   2.4912348816062E-06
(PID.TID 0000.0001) %MON dynstat_uvel_max             =   8.8333703720032E-01
(PID.TID 0000.0001) %MON dynstat_uvel_min             =  -2.7278025167691E+00
(PID.TID 0000.0001) %MON dynstat_uvel_mean            =   6.7934879934476E-03
(PID.TID 0000.0001) %MON dynstat_uvel_sd              =   5.0864725844078E-02
(PID.TID 0000.0001) %MON dynstat_uvel_del2            =   5.1144968721165E-07
(PID.TID 0000.0001) %MON dynstat_vvel_max             =   1.2634383213819E+00
(PID.TID 0000.0001) %MON dynstat_vvel_min             =  -7.0356762618055E-01
(PID.TID 0000.0001) %MON dynstat_vvel_mean            =   4.5457044918851E-03
(PID.TID 0000.0001) %MON dynstat_vvel_sd              =   5.0933744858288E-02
(PID.TID 0000.0001) %MON dynstat_vvel_del2            =   5.4267565849770E-07
(PID.TID 0000.0001) %MON dynstat_wvel_max             =   3.9403538033067E-02
(PID.TID 0000.0001) %MON dynstat_wvel_min             =  -3.3082055075347E-02
(PID.TID 0000.0001) %MON dynstat_wvel_mean            =  -1.9303598363671E-05
(PID.TID 0000.0001) %MON dynstat_wvel_sd              =   6.1173940197488E-04
(PID.TID 0000.0001) %MON dynstat_wvel_del2            =   7.0377145238416E-08
(PID.TID 0000.0001) %MON dynstat_theta_max            =   2.6139404521505E+01
(PID.TID 0000.0001) %MON dynstat_theta_min            =   1.4688660528527E+00
(PID.TID 0000.0001) %MON dynstat_theta_mean           =   5.5098996391916E+00
(PID.TID 0000.0001) %MON dynstat_theta_sd             =   4.7732772261622E+00
(PID.TID 0000.0001) %MON dynstat_theta_del2           =   4.0341773291519E-06
(PID.TID 0000.0001) %MON dynstat_salt_max             =   3.9139029961568E+01
(PID.TID 0000.0001) %MON dynstat_salt_min             =   3.3091719893446E+01
(PID.TID 0000.0001) %MON dynstat_salt_mean            =   3.5173367879360E+01
(PID.TID 0000.0001) %MON dynstat_salt_sd              =   3.7892220705799E-01
(PID.TID 0000.0001) %MON dynstat_salt_del2            =   5.3361660233467E-07
(PID.TID 0000.0001) %MON dynstat_sst_max              =   2.6128275378576E+01
(PID.TID 0000.0001) %MON dynstat_sst_min              =   3.8598750199356E+00
(PID.TID 0000.0001) %MON dynstat_sst_mean             =   1.9631802165740E+01
(PID.TID 0000.0001) %MON dynstat_sst_sd               =   3.6354475296943E+00
(PID.TID 0000.0001) %MON dynstat_sst_del2             =   1.9420510557067E-05
(PID.TID 0000.0001) %MON dynstat_sss_max              =   3.7335726995334E+01
(PID.TID 0000.0001) %MON dynstat_sss_min              =   3.3091719893446E+01
(PID.TID 0000.0001) %MON dynstat_sss_mean             =   3.5868650642145E+01
(PID.TID 0000.0001) %MON dynstat_sss_sd               =   4.8747398687381E-01
(PID.TID 0000.0001) %MON dynstat_sss_del2             =   4.9010156314013E-06
(PID.TID 0000.0001) %MON forcing_qnet_max             =   1.0690551922491E+03
(PID.TID 0000.0001) %MON forcing_qnet_min             =  -1.8969360699673E+02
(PID.TID 0000.0001) %MON forcing_qnet_mean            =   3.2603391293429E+02
(PID.TID 0000.0001) %MON forcing_qnet_sd              =   2.1540724205552E+02
(PID.TID 0000.0001) %MON forcing_qnet_del2            =   1.1810465632063E-03
(PID.TID 0000.0001) %MON forcing_qsw_max              =   0.0000000000000E+00
(PID.TID 0000.0001) %MON forcing_qsw_min              =  -8.9640288763835E+00
(PID.TID 0000.0001) %MON forcing_qsw_mean             =  -2.9855377262821E-01
(PID.TID 0000.0001) %MON forcing_qsw_sd               =   9.4670363860455E-01
(PID.TID 0000.0001) %MON forcing_qsw_del2             =   3.0487658645497E-06
(PID.TID 0000.0001) %MON forcing_empmr_max            =   2.2388061100286E-04
(PID.TID 0000.0001) %MON forcing_empmr_min            =  -1.1435072416358E-03
(PID.TID 0000.0001) %MON forcing_empmr_mean           =   4.0913695072830E-05
(PID.TID 0000.0001) %MON forcing_empmr_sd             =   1.1218624414371E-04
(PID.TID 0000.0001) %MON forcing_empmr_del2           =   1.0025140374057E-09
(PID.TID 0000.0001) %MON forcing_fu_max               =   5.0104798428121E-01
(PID.TID 0000.0001) %MON forcing_fu_min               =  -3.3439912528958E-01
(PID.TID 0000.0001) %MON forcing_fu_mean              =   6.8540485562127E-02
(PID.TID 0000.0001) %MON forcing_fu_sd                =   1.3979008468318E-01
(PID.TID 0000.0001) %MON forcing_fu_del2              =   2.8878200436687E-07
(PID.TID 0000.0001) %MON forcing_fv_max               =   5.6349230978905E-01
(PID.TID 0000.0001) %MON forcing_fv_min               =  -1.7527594726411E-01
(PID.TID 0000.0001) %MON forcing_fv_mean              =   9.6210483049552E-02
(PID.TID 0000.0001) %MON forcing_fv_sd                =   1.3401646379616E-01
(PID.TID 0000.0001) %MON forcing_fv_del2              =   2.2864451546530E-07
(PID.TID 0000.0001) %MON trAdv_CFL_u_max              =   1.7235182929089E-01
(PID.TID 0000.0001) %MON trAdv_CFL_v_max              =   7.6653766426470E-02
(PID.TID 0000.0001) %MON trAdv_CFL_w_max              =   5.2182465064427E-01
(PID.TID 0000.0001) %MON advcfl_uvel_max              =   1.7240356204076E-01
(PID.TID 0000.0001) %MON advcfl_vvel_max              =   7.6653767029306E-02
(PID.TID 0000.0001) %MON advcfl_wvel_max              =   5.1312757313353E-01
(PID.TID 0000.0001) %MON advcfl_W_hf_max              =   5.2182465064427E-01
(PID.TID 0000.0001) %MON pe_b_mean                    =  -1.6686056668130E-03
(PID.TID 0000.0001) %MON ke_max                       =   3.3982569187922E+00
(PID.TID 0000.0001) %MON ke_mean                      =   2.6049578481726E-03
(PID.TID 0000.0001) %MON ke_vol                       =   4.5818637829946E+16
(PID.TID 0000.0001) %MON vort_r_min                   =  -5.1147450543740E-04
(PID.TID 0000.0001) %MON vort_r_max                   =   7.9275478829187E-04
(PID.TID 0000.0001) %MON vort_a_mean                  =   8.2147620151433E-05
(PID.TID 0000.0001) %MON vort_a_sd                    =   1.0161248032910E-05
(PID.TID 0000.0001) %MON vort_p_mean                  =   8.4848842369388E-05
(PID.TID 0000.0001) %MON vort_p_sd                    =   3.5006497182558E-05
(PID.TID 0000.0001) %MON surfExpan_theta_mean         =  -5.1573964416488E-04
(PID.TID 0000.0001) %MON surfExpan_salt_mean          =  -1.1938147370036E-03
(PID.TID 0000.0001) // =======================================================
(PID.TID 0000.0001) // End MONITOR dynamic field statistics
(PID.TID 0000.0001) // =======================================================
(PID.TID 0000.0001) // =======================================================
(PID.TID 0000.0001) // Begin OBCS MONITOR field statistics
(PID.TID 0000.0001) // =======================================================
(PID.TID 0000.0001) %MON obc_E_uVel_max               =   2.6404169471781E-01
(PID.TID 0000.0001) %MON obc_E_uVel_min               =  -2.7278025167691E+00
(PID.TID 0000.0001) %MON obc_E_uVel_mean              =   7.2567055999697E-03
(PID.TID 0000.0001) %MON obc_E_uVel_sd                =   4.5131166098935E-02
(PID.TID 0000.0001) %MON obc_E_uVel_Int               =   1.4015601170687E+08
(PID.TID 0000.0001) %MON obc_W_uVel_max               =   3.2552065211615E-01
(PID.TID 0000.0001) %MON obc_W_uVel_min               =  -6.9361238538007E-01
(PID.TID 0000.0001) %MON obc_W_uVel_mean              =  -3.7982834672129E-03
(PID.TID 0000.0001) %MON obc_W_uVel_sd                =   8.5899733159101E-02
(PID.TID 0000.0001) %MON obc_W_uVel_Int               =  -2.3130149858517E+07
(PID.TID 0000.0001) %MON obc_N_vVel_max               =   3.0362801572666E-01
(PID.TID 0000.0001) %MON obc_N_vVel_min               =  -9.9420894118766E-02
(PID.TID 0000.0001) %MON obc_N_vVel_mean              =   2.0173224744944E-02
(PID.TID 0000.0001) %MON obc_N_vVel_sd                =   4.0844322703573E-02
(PID.TID 0000.0001) %MON obc_N_vVel_Int               =   1.6593389101184E+08
(PID.TID 0000.0001) %MON obc_S_vVel_max               =   4.5288892656062E-02
(PID.TID 0000.0001) %MON obc_S_vVel_min               =  -9.3554147304536E-02
(PID.TID 0000.0001) %MON obc_S_vVel_mean              =  -4.5313521768453E-03
(PID.TID 0000.0001) %MON obc_S_vVel_sd                =   1.1174243664081E-02
(PID.TID 0000.0001) %MON obc_S_vVel_Int               =  -5.0428963564644E+07
(PID.TID 0000.0001) %MON obc_E_theta_max              =   2.5543400077115E+01
(PID.TID 0000.0001) %MON obc_E_theta_min              =   1.4633015851955E+00
(PID.TID 0000.0001) %MON obc_E_theta_mean             =   5.4563345982347E+00
(PID.TID 0000.0001) %MON obc_E_theta_sd               =   5.6195484728212E+00
(PID.TID 0000.0001) %MON obc_W_theta_max              =   1.5385151438155E+01
(PID.TID 0000.0001) %MON obc_W_theta_min              =   1.8895914629663E+00
(PID.TID 0000.0001) %MON obc_W_theta_mean             =   4.2050447212969E+00
(PID.TID 0000.0001) %MON obc_W_theta_sd               =   2.6436294328326E+00
(PID.TID 0000.0001) %MON obc_N_theta_max              =   1.6389539512358E+01
(PID.TID 0000.0001) %MON obc_N_theta_min              =   2.0877605393519E+00
(PID.TID 0000.0001) %MON obc_N_theta_mean             =   5.8650246976748E+00
(PID.TID 0000.0001) %MON obc_N_theta_sd               =   3.8420540742396E+00
(PID.TID 0000.0001) %MON obc_S_theta_max              =   2.3210099062962E+01
(PID.TID 0000.0001) %MON obc_S_theta_min              =   1.8976911896308E+00
(PID.TID 0000.0001) %MON obc_S_theta_mean             =   5.4651185211119E+00
(PID.TID 0000.0001) %MON obc_S_theta_sd               =   4.8644738336265E+00
(PID.TID 0000.0001) %MON obc_E_salt_max               =   3.7284640931659E+01
(PID.TID 0000.0001) %MON obc_E_salt_min               =   3.4844695097122E+01
(PID.TID 0000.0001) %MON obc_E_salt_mean              =   3.5160049185614E+01
(PID.TID 0000.0001) %MON obc_E_salt_sd                =   4.6599353163524E-01
(PID.TID 0000.0001) %MON obc_W_salt_max               =   3.5867264454533E+01
(PID.TID 0000.0001) %MON obc_W_salt_min               =   3.3295096609545E+01
(PID.TID 0000.0001) %MON obc_W_salt_mean              =   3.4957938633753E+01
(PID.TID 0000.0001) %MON obc_W_salt_sd                =   2.4691863212268E-01
(PID.TID 0000.0001) %MON obc_N_salt_max               =   3.5910861522510E+01
(PID.TID 0000.0001) %MON obc_N_salt_min               =   3.4917014819804E+01
(PID.TID 0000.0001) %MON obc_N_salt_mean              =   3.5230512871081E+01
(PID.TID 0000.0001) %MON obc_N_salt_sd                =   3.0056408045987E-01
(PID.TID 0000.0001) %MON obc_S_salt_max               =   3.7318243364860E+01
(PID.TID 0000.0001) %MON obc_S_salt_min               =   3.4884963728156E+01
(PID.TID 0000.0001) %MON obc_S_salt_mean              =   3.5182815708065E+01
(PID.TID 0000.0001) %MON obc_S_salt_sd                =   4.4105407774895E-01
(PID.TID 0000.0001) // =======================================================
(PID.TID 0000.0001) // End OBCS MONITOR field statistics
(PID.TID 0000.0001) // =======================================================
 Computing Diagnostic #     23  ETAN         Counter:      15   Parms: SM      M1      
 Computing Diagnostic #     80  oceTAUX      Counter:      15   Parms: UU      U1      
           Vector  Mate for  oceTAUX      Diagnostic #     81  oceTAUY  exists 
 Computing Diagnostic #     81  oceTAUY      Counter:      15   Parms: VV      U1      
           Vector  Mate for  oceTAUY      Diagnostic #     80  oceTAUX  exists 
 Computing Diagnostic #    185  EXFuwind     Counter:      15   Parms: UM      U1      
 Computing Diagnostic #    186  EXFvwind     Counter:      15   Parms: VM      U1      
 Computing Diagnostic #     26  THETA        Counter:      15   Parms: SMR     MR      
 Computing Diagnostic #     27  SALT         Counter:      15   Parms: SMR     MR      
 Computing Diagnostic #     30  UVEL         Counter:      15   Parms: UUR     MR      
           Vector  Mate for  UVEL         Diagnostic #     31  VVEL     exists 
 Computing Diagnostic #     31  VVEL         Counter:      15   Parms: VVR     MR      
           Vector  Mate for  VVEL         Diagnostic #     30  UVEL     exists 
 Computing Diagnostic #     32  WVEL         Counter:      15   Parms: WM      LR      
(PID.TID 0000.0001) %CHECKPOINT        15 ckptA
(PID.TID 0000.0001)   Seconds in section "ALL                    [THE_MODEL_MAIN]":
(PID.TID 0000.0001)           User time:   37.7185526043177
(PID.TID 0000.0001)         System time:  0.000000000000000E+000
(PID.TID 0000.0001)     Wall clock time:   77.0107371807098
(PID.TID 0000.0001)          No. starts:           1
(PID.TID 0000.0001)           No. stops:           1
(PID.TID 0000.0001)   Seconds in section "INITIALISE_FIXED       [THE_MODEL_MAIN]":
(PID.TID 0000.0001)           User time:   1.69535100460052
(PID.TID 0000.0001)         System time:  0.000000000000000E+000
(PID.TID 0000.0001)     Wall clock time:   15.4635391235352
(PID.TID 0000.0001)          No. starts:           1
(PID.TID 0000.0001)           No. stops:           1
(PID.TID 0000.0001)   Seconds in section "THE_MAIN_LOOP          [THE_MODEL_MAIN]":
(PID.TID 0000.0001)           User time:   36.0231857299805
(PID.TID 0000.0001)         System time:  0.000000000000000E+000
(PID.TID 0000.0001)     Wall clock time:   61.5471711158752
(PID.TID 0000.0001)          No. starts:           1
(PID.TID 0000.0001)           No. stops:           1
(PID.TID 0000.0001)   Seconds in section "INITIALISE_VARIA    [THE_MAIN_LOOP]":
(PID.TID 0000.0001)           User time:   1.22461915016174
(PID.TID 0000.0001)         System time:  0.000000000000000E+000
(PID.TID 0000.0001)     Wall clock time:   3.58968210220337
(PID.TID 0000.0001)          No. starts:           1
(PID.TID 0000.0001)           No. stops:           1
(PID.TID 0000.0001)   Seconds in section "MAIN LOOP           [THE_MAIN_LOOP]":
(PID.TID 0000.0001)           User time:   34.7985570430756
(PID.TID 0000.0001)         System time:  0.000000000000000E+000
(PID.TID 0000.0001)     Wall clock time:   57.9574730396271
(PID.TID 0000.0001)          No. starts:           1
(PID.TID 0000.0001)           No. stops:           1
(PID.TID 0000.0001)   Seconds in section "MAIN_DO_LOOP        [THE_MAIN_LOOP]":
(PID.TID 0000.0001)           User time:   34.7984843254089
(PID.TID 0000.0001)         System time:  0.000000000000000E+000
(PID.TID 0000.0001)     Wall clock time:   57.9573910236359
(PID.TID 0000.0001)          No. starts:          15
(PID.TID 0000.0001)           No. stops:          15
(PID.TID 0000.0001)   Seconds in section "FORWARD_STEP        [MAIN_DO_LOOP]":
(PID.TID 0000.0001)           User time:   34.7982950210571
(PID.TID 0000.0001)         System time:  0.000000000000000E+000
(PID.TID 0000.0001)     Wall clock time:   57.9571955204010
(PID.TID 0000.0001)          No. starts:          15
(PID.TID 0000.0001)           No. stops:          15
(PID.TID 0000.0001)   Seconds in section "DO_STATEVARS_DIAGS  [FORWARD_STEP]":
(PID.TID 0000.0001)           User time:  0.310470581054688
(PID.TID 0000.0001)         System time:  0.000000000000000E+000
(PID.TID 0000.0001)     Wall clock time:  0.313515663146973
(PID.TID 0000.0001)          No. starts:          45
(PID.TID 0000.0001)           No. stops:          45
(PID.TID 0000.0001)   Seconds in section "LOAD_FIELDS_DRIVER  [FORWARD_STEP]":
(PID.TID 0000.0001)           User time:  0.145651578903198
(PID.TID 0000.0001)         System time:  0.000000000000000E+000
(PID.TID 0000.0001)     Wall clock time:  0.206133842468262
(PID.TID 0000.0001)          No. starts:          15
(PID.TID 0000.0001)           No. stops:          15
(PID.TID 0000.0001)   Seconds in section "EXF_GETFORCING     [LOAD_FLDS_DRIVER]":
(PID.TID 0000.0001)           User time:  0.145315885543823
(PID.TID 0000.0001)         System time:  0.000000000000000E+000
(PID.TID 0000.0001)     Wall clock time:  0.205783843994141
(PID.TID 0000.0001)          No. starts:          15
(PID.TID 0000.0001)           No. stops:          15
(PID.TID 0000.0001)   Seconds in section "EXTERNAL_FLDS_LOAD [LOAD_FLDS_DRIVER]":
(PID.TID 0000.0001)           User time:  7.748603820800781E-005
(PID.TID 0000.0001)         System time:  0.000000000000000E+000
(PID.TID 0000.0001)     Wall clock time:  8.726119995117188E-005
(PID.TID 0000.0001)          No. starts:          15
(PID.TID 0000.0001)           No. stops:          15
(PID.TID 0000.0001)   Seconds in section "DO_ATMOSPHERIC_PHYS [FORWARD_STEP]":
(PID.TID 0000.0001)           User time:  7.128715515136719E-005
(PID.TID 0000.0001)         System time:  0.000000000000000E+000
(PID.TID 0000.0001)     Wall clock time:  8.082389831542969E-005
(PID.TID 0000.0001)          No. starts:          15
(PID.TID 0000.0001)           No. stops:          15
(PID.TID 0000.0001)   Seconds in section "DO_OCEANIC_PHYS     [FORWARD_STEP]":
(PID.TID 0000.0001)           User time:   4.60543537139893
(PID.TID 0000.0001)         System time:  0.000000000000000E+000
(PID.TID 0000.0001)     Wall clock time:   4.69934701919556
(PID.TID 0000.0001)          No. starts:          15
(PID.TID 0000.0001)           No. stops:          15
(PID.TID 0000.0001)   Seconds in section "KPP_CALC [DO_OCEANIC_PHYS]":
(PID.TID 0000.0001)           User time:   3.99310779571533
(PID.TID 0000.0001)         System time:  0.000000000000000E+000
(PID.TID 0000.0001)     Wall clock time:   4.07004833221436
(PID.TID 0000.0001)          No. starts:          15
(PID.TID 0000.0001)           No. stops:          15
(PID.TID 0000.0001)   Seconds in section "DYNAMICS            [FORWARD_STEP]":
(PID.TID 0000.0001)           User time:   11.4159750938416
(PID.TID 0000.0001)         System time:  0.000000000000000E+000
(PID.TID 0000.0001)     Wall clock time:   11.4589700698853
(PID.TID 0000.0001)          No. starts:          15
(PID.TID 0000.0001)           No. stops:          15
(PID.TID 0000.0001)   Seconds in section "UPDATE_SURF_DR      [FORWARD_STEP]":
(PID.TID 0000.0001)           User time:  0.117116928100586
(PID.TID 0000.0001)         System time:  0.000000000000000E+000
(PID.TID 0000.0001)     Wall clock time:  0.118903875350952
(PID.TID 0000.0001)          No. starts:          15
(PID.TID 0000.0001)           No. stops:          15
(PID.TID 0000.0001)   Seconds in section "SOLVE_FOR_PRESSURE  [FORWARD_STEP]":
(PID.TID 0000.0001)           User time:   1.10657787322998
(PID.TID 0000.0001)         System time:  0.000000000000000E+000
(PID.TID 0000.0001)     Wall clock time:   1.11337780952454
(PID.TID 0000.0001)          No. starts:          15
(PID.TID 0000.0001)           No. stops:          15
(PID.TID 0000.0001)   Seconds in section "MOM_CORRECTION_STEP [FORWARD_STEP]":
(PID.TID 0000.0001)           User time:  0.249125480651855
(PID.TID 0000.0001)         System time:  0.000000000000000E+000
(PID.TID 0000.0001)     Wall clock time:  0.249757051467896
(PID.TID 0000.0001)          No. starts:          15
(PID.TID 0000.0001)           No. stops:          15
(PID.TID 0000.0001)   Seconds in section "INTEGR_CONTINUITY   [FORWARD_STEP]":
(PID.TID 0000.0001)           User time:  0.320104122161865
(PID.TID 0000.0001)         System time:  0.000000000000000E+000
(PID.TID 0000.0001)     Wall clock time:  0.321689605712891
(PID.TID 0000.0001)          No. starts:          15
(PID.TID 0000.0001)           No. stops:          15
(PID.TID 0000.0001)   Seconds in section "BLOCKING_EXCHANGES  [FORWARD_STEP]":
(PID.TID 0000.0001)           User time:   1.36195516586304
(PID.TID 0000.0001)         System time:  0.000000000000000E+000
(PID.TID 0000.0001)     Wall clock time:   1.36586332321167
(PID.TID 0000.0001)          No. starts:          30
(PID.TID 0000.0001)           No. stops:          30
(PID.TID 0000.0001)   Seconds in section "THERMODYNAMICS      [FORWARD_STEP]":
(PID.TID 0000.0001)           User time:   7.56697225570679
(PID.TID 0000.0001)         System time:  0.000000000000000E+000
(PID.TID 0000.0001)     Wall clock time:   7.62924170494080
(PID.TID 0000.0001)          No. starts:          15
(PID.TID 0000.0001)           No. stops:          15
(PID.TID 0000.0001)   Seconds in section "TRC_CORRECTION_STEP [FORWARD_STEP]":
(PID.TID 0000.0001)           User time:  7.867813110351562E-005
(PID.TID 0000.0001)         System time:  0.000000000000000E+000
(PID.TID 0000.0001)     Wall clock time:  8.201599121093750E-005
(PID.TID 0000.0001)          No. starts:          15
(PID.TID 0000.0001)           No. stops:          15
(PID.TID 0000.0001)   Seconds in section "MONITOR             [FORWARD_STEP]":
(PID.TID 0000.0001)           User time:   1.12654781341553
(PID.TID 0000.0001)         System time:  0.000000000000000E+000
(PID.TID 0000.0001)     Wall clock time:   1.19806146621704
(PID.TID 0000.0001)          No. starts:          15
(PID.TID 0000.0001)           No. stops:          15
(PID.TID 0000.0001)   Seconds in section "DO_THE_MODEL_IO     [FORWARD_STEP]":
(PID.TID 0000.0001)           User time:   2.20647954940796
(PID.TID 0000.0001)         System time:  0.000000000000000E+000
(PID.TID 0000.0001)     Wall clock time:   11.1071059703827
(PID.TID 0000.0001)          No. starts:          15
(PID.TID 0000.0001)           No. stops:          15
(PID.TID 0000.0001)   Seconds in section "DO_WRITE_PICKUP     [FORWARD_STEP]":
(PID.TID 0000.0001)           User time:   4.26338005065918
(PID.TID 0000.0001)         System time:  0.000000000000000E+000
(PID.TID 0000.0001)     Wall clock time:   18.1732316017151
(PID.TID 0000.0001)          No. starts:          15
(PID.TID 0000.0001)           No. stops:          15
(PID.TID 0000.0001) // ======================================================
(PID.TID 0000.0001) // Tile <-> Tile communication statistics
(PID.TID 0000.0001) // ======================================================
(PID.TID 0000.0001) // o Tile number: 000001
(PID.TID 0000.0001) //         No. X exchanges =              0
(PID.TID 0000.0001) //            Max. X spins =              0
(PID.TID 0000.0001) //            Min. X spins =     1000000000
(PID.TID 0000.0001) //          Total. X spins =              0
(PID.TID 0000.0001) //            Avg. X spins =       0.00E+00
(PID.TID 0000.0001) //         No. Y exchanges =              0
(PID.TID 0000.0001) //            Max. Y spins =              0
(PID.TID 0000.0001) //            Min. Y spins =     1000000000
(PID.TID 0000.0001) //          Total. Y spins =              0
(PID.TID 0000.0001) //            Avg. Y spins =       0.00E+00
(PID.TID 0000.0001) // o Thread number: 000001
(PID.TID 0000.0001) //            No. barriers =          72650
(PID.TID 0000.0001) //      Max. barrier spins =              1
(PID.TID 0000.0001) //      Min. barrier spins =              1
(PID.TID 0000.0001) //     Total barrier spins =          72650
(PID.TID 0000.0001) //      Avg. barrier spins =       1.00E+00
PROGRAM MAIN: Execution ended Normally
