(PID.TID 0000.0001) 
(PID.TID 0000.0001) // ======================================================
(PID.TID 0000.0001) //                      MITgcm UV
(PID.TID 0000.0001) //                      =========
(PID.TID 0000.0001) // ======================================================
(PID.TID 0000.0001) // execution environment starting up...
(PID.TID 0000.0001) 
(PID.TID 0000.0001) // MITgcmUV version:  checkpoint67c
(PID.TID 0000.0001) // Build user:        dmenemen
(PID.TID 0000.0001) // Build host:        r1i5n1
(PID.TID 0000.0001) // Build date:        Fri Aug 17 18:29:09 PDT 2018
(PID.TID 0000.0001) 
(PID.TID 0000.0001) // =======================================================
(PID.TID 0000.0001) // Execution Environment parameter file "eedata"
(PID.TID 0000.0001) // =======================================================
(PID.TID 0000.0001) ># Example "eedata" file
(PID.TID 0000.0001) ># Lines beginning "#" are comments
(PID.TID 0000.0001) ># nTx - No. threads per process in X
(PID.TID 0000.0001) ># nTy - No. threads per process in Y
(PID.TID 0000.0001) > &EEPARMS
(PID.TID 0000.0001) > nTx=1,
(PID.TID 0000.0001) > nTy=1,
(PID.TID 0000.0001) ># debugMode=.TRUE.,
(PID.TID 0000.0001) > /
(PID.TID 0000.0001) ># Note: Some systems use & as the
(PID.TID 0000.0001) ># namelist terminator. Other systems
(PID.TID 0000.0001) ># use a / character (as shown here).
(PID.TID 0000.0001) 
(PID.TID 0000.0001) // =======================================================
(PID.TID 0000.0001) // Computational Grid Specification ( see files "SIZE.h" )
(PID.TID 0000.0001) //                                  ( and "eedata"       )
(PID.TID 0000.0001) // =======================================================
(PID.TID 0000.0001)      nPx =   15 ; /* No. processes in X */
(PID.TID 0000.0001)      nPy =    7 ; /* No. processes in Y */
(PID.TID 0000.0001)      nSx =    1 ; /* No. tiles in X per process */
(PID.TID 0000.0001)      nSy =    1 ; /* No. tiles in Y per process */
(PID.TID 0000.0001)      sNx =  121 ; /* Tile size in X */
(PID.TID 0000.0001)      sNy =   76 ; /* Tile size in Y */
(PID.TID 0000.0001)      OLx =    4 ; /* Tile overlap distance in X */
(PID.TID 0000.0001)      OLy =    4 ; /* Tile overlap distance in Y */
(PID.TID 0000.0001)      nTx =    1 ; /* No. threads in X per process */
(PID.TID 0000.0001)      nTy =    1 ; /* No. threads in Y per process */
(PID.TID 0000.0001)       Nr =  100 ; /* No. levels in the vertical   */
(PID.TID 0000.0001)       Nx = 1815 ; /* Total domain size in X ( = nPx*nSx*sNx ) */
(PID.TID 0000.0001)       Ny =  532 ; /* Total domain size in Y ( = nPy*nSy*sNy ) */
(PID.TID 0000.0001)   nTiles =    1 ; /* Total no. tiles per process ( = nSx*nSy ) */
(PID.TID 0000.0001)   nProcs =  105 ; /* Total no. processes ( = nPx*nPy ) */
(PID.TID 0000.0001) nThreads =    1 ; /* Total no. threads per process ( = nTx*nTy ) */
(PID.TID 0000.0001) usingMPI =    T ; /* Flag used to control whether MPI is in use */
(PID.TID 0000.0001)                   /*  note: To execute a program with MPI calls */
(PID.TID 0000.0001)                   /*  it must be launched appropriately e.g     */
(PID.TID 0000.0001)                   /*  "mpirun -np 64 ......"                    */
(PID.TID 0000.0001) useCoupler=    F ;/* Flag used to control communications with   */
(PID.TID 0000.0001)                   /*  other model components, through a coupler */
(PID.TID 0000.0001) debugMode =    F ; /* print debug msg. (sequence of S/R calls)  */
(PID.TID 0000.0001) printMapIncludesZeros=    F ; /* print zeros in Std.Output maps */
(PID.TID 0000.0001) maxLengthPrt1D=   65 /* maxLength of 1D array printed to StdOut */
(PID.TID 0000.0001) 
(PID.TID 0000.0001) ======= Starting MPI parallel Run =========
(PID.TID 0000.0001)  My Processor Name (len:  6 ) = r1i5n1
(PID.TID 0000.0001)  Located at (  0,  0) on processor grid (0: 14,0:  6)
(PID.TID 0000.0001)  Origin at  (     1,     1) on global grid (1:  1815,1:   532)
(PID.TID 0000.0001)  North neighbor = processor 0001
(PID.TID 0000.0001)  South neighbor = processor 0006
(PID.TID 0000.0001)   East neighbor = processor 0007
(PID.TID 0000.0001)   West neighbor = processor 0098
(PID.TID 0000.0001) // ======================================================
(PID.TID 0000.0001) // Mapping of tiles to threads
(PID.TID 0000.0001) // ======================================================
(PID.TID 0000.0001) // -o- Thread   1, tiles (   1:   1,   1:   1)
(PID.TID 0000.0001) 
(PID.TID 0000.0001) W2_READPARMS: opening data.exch2
(PID.TID 0000.0001)  OPEN_COPY_DATA_FILE: opening file data.exch2
(PID.TID 0000.0001) // =======================================================
(PID.TID 0000.0001) // Parameter file "data.exch2"
(PID.TID 0000.0001) // =======================================================
(PID.TID 0000.0001) ># EXCH2 Package: Wrapper-2 User Choice
(PID.TID 0000.0001) >#--------------------
(PID.TID 0000.0001) >#  preDefTopol   :: pre-defined Topology selector:
(PID.TID 0000.0001) >#                :: = 0 : topology defined from processing "data.exch2";
(PID.TID 0000.0001) >#                :: = 1 : simple, single facet topology;
(PID.TID 0000.0001) >#                :: = 2 : customized topology (w2_set_myown_facets)
(PID.TID 0000.0001) >#                :: = 3 : 6-facet Cube (3 face-dims: nRed, nGreen, nBlue).
(PID.TID 0000.0001) >#  dimsFacets    :: facet pair of dimensions (n1x,n1y, n2x,n2y ...)
(PID.TID 0000.0001) >#  facetEdgeLink :: Face-Edge connectivity map:
(PID.TID 0000.0001) >#    facetEdgeLink(i,j)=XX.1 : face(j)-edge(i) (i=1,2,3,4 <==> N,S,E,W)
(PID.TID 0000.0001) >#    is connected to Northern edge of face "XX" ; similarly,
(PID.TID 0000.0001) >#    = XX.2 : to Southern.E, XX.3 = Eastern.E, XX.4 = Western.E of face "XX"
(PID.TID 0000.0001) >#  blankList     :: List of "blank" tiles
(PID.TID 0000.0001) >#  W2_mapIO      :: global map IO selector (-1 = old type ; 0 = 1 long line in X
(PID.TID 0000.0001) >#                :: 1 = compact, mostly in Y dir)
(PID.TID 0000.0001) >#  W2_printMsg   :: option for information messages printing
(PID.TID 0000.0001) >#                :: <0 : write to log file ; =0 : minimum print ;
(PID.TID 0000.0001) >#                :: =1 : no duplicated print ; =2 : all processes do print
(PID.TID 0000.0001) >#--------------------
(PID.TID 0000.0001) > &W2_EXCH2_PARM01
(PID.TID 0000.0001) >  W2_printMsg= 0,
(PID.TID 0000.0001) >  W2_mapIO   = 1,
(PID.TID 0000.0001) >#
(PID.TID 0000.0001) >#-- 5 facets llc_270 topology (drop facet 6 and its connection):
(PID.TID 0000.0001) >  preDefTopol = 1,
(PID.TID 0000.0001) >  dimsFacets = 1815, 532,
(PID.TID 0000.0001) > &
(PID.TID 0000.0001) 
(PID.TID 0000.0001) W2_READPARMS: finished reading data.exch2
(PID.TID 0000.0001) W2_useE2ioLayOut=    T ;/* T: use Exch2 glob IO map; F: use model default */
(PID.TID 0000.0001) W2_mapIO        =   1 ; /* select option for Exch2 global-IO map */
(PID.TID 0000.0001) W2_printMsg     =   0 ; /* select option for printing information */
(PID.TID 0000.0001) ===== Start setting W2 TOPOLOGY:
(PID.TID 0000.0001) W2_E2SETUP: number of Active Tiles =     105
(PID.TID 0000.0001) W2_E2SETUP: number of Blank Tiles  =       0
(PID.TID 0000.0001) W2_E2SETUP: Total number of Tiles  =     105
(PID.TID 0000.0001) W2_SET_SINGLE_FACET: preDefTopol=  1 selected
(PID.TID 0000.0001) W2_E2SETUP: Total number of Facets =       1
(PID.TID 0000.0001) W2_SET_F2F_INDEX: index matrix for connected Facet-Edges:
(PID.TID 0000.0001) W2_SET_MAP_TILES: tile mapping within facet and global Map:
(PID.TID 0000.0001)  W2_mapIO = 1815 (=   15*sNx)
(PID.TID 0000.0001)  Global Map (IO): X-size=    1815 , Y-size=     532
(PID.TID 0000.0001) W2_SET_MAP_TILES: tile offset within facet and global Map:
- facet  1 : X-size=  1815 , Y-size=   532 ;  105 tiles (Tx,Ty=  15,   7)
(PID.TID 0000.0001) W2_SET_MAP_CUMSUM: setting Facet Matrix for CUMUL-SUM
 Facet Matrix for CUMUL-SUM (nFacets=   1, nActive=   1 ):
- facet  1 :  0  0 ,
(PID.TID 0000.0001) W2_SET_MAP_CUMSUM: done (skip Tile Matrix setting)
(PID.TID 0000.0001) W2_SET_TILE2TILES: tile neighbours and index connection:
(PID.TID 0000.0001) current Max.Nb.Neighbours (e.g., on tile    1 ) =  4
(PID.TID 0000.0001) ===== W2 TILE TOPOLOGY =====
(PID.TID 0000.0001)  TILE:     1 (bi,bj=   1   1 ), Nb of Neighbours =  4
(PID.TID 0000.0001)     NEIGHBOUR  1 = TILE   16 (n=  2) Comm = MSG (PROC=    2)
(PID.TID 0000.0001)     NEIGHBOUR  2 = TILE   91 (n=  1) Comm = MSG (PROC=    7)
(PID.TID 0000.0001)     NEIGHBOUR  3 = TILE    2 (n=  4) Comm = MSG (PROC=    8)
(PID.TID 0000.0001)     NEIGHBOUR  4 = TILE   15 (n=  3) Comm = MSG (PROC=   99)
(PID.TID 0000.0001) =====       setting W2 TOPOLOGY: Done
(PID.TID 0000.0001) 
(PID.TID 0000.0001)  INI_PARMS: opening model parameter file "data"
(PID.TID 0000.0001)  OPEN_COPY_DATA_FILE: opening file data
(PID.TID 0000.0001) // =======================================================
(PID.TID 0000.0001) // Parameter file "data"
(PID.TID 0000.0001) // =======================================================
(PID.TID 0000.0001) >### Data file with primary model parameters -----------------------------------
(PID.TID 0000.0001) >#
(PID.TID 0000.0001) >### Continuous equation parameters --------------------------------------------
(PID.TID 0000.0001) > &PARM01
(PID.TID 0000.0001) >## Reference temperatures and salinities for every vertical level.
(PID.TID 0000.0001) > tRef =  18.89, 18.89, 18.89, 18.89, 18.89, 18.87, 18.85, 18.82,
(PID.TID 0000.0001) >         18.80, 18.73, 18.63, 18.49, 18.28, 18.08, 17.86, 17.63,
(PID.TID 0000.0001) >         17.40, 17.18, 16.95, 16.73, 16.52, 16.31, 16.10, 15.89,
(PID.TID 0000.0001) >         15.69, 15.49, 15.28, 15.08, 14.88, 14.67, 14.47, 14.25,
(PID.TID 0000.0001) >         14.03, 13.80, 13.55, 13.29, 13.01, 12.73, 12.42, 12.11,
(PID.TID 0000.0001) >         11.78, 11.43, 11.07, 10.70, 10.31,  9.93,  9.53,  9.11,
(PID.TID 0000.0001) >          8.71,  8.29,  7.89,  7.51,  7.13,  6.78,  6.44,  6.11,
(PID.TID 0000.0001) >          5.81,  5.51,  5.23,  4.97,  4.73,  4.51,  4.30,  4.11,
(PID.TID 0000.0001) >          3.94,  3.78,  3.63,  3.50,  3.38,  3.25,  3.14,  3.04,
(PID.TID 0000.0001) >          2.94,  2.83,  2.74,  2.64,  2.54,  2.45,  2.36,  2.27,
(PID.TID 0000.0001) >          2.19,  2.10,  2.03,  1.95,  1.86,  1.78,  1.70,  1.63,
(PID.TID 0000.0001) >          1.55,  1.48,  1.41,  1.34,  1.27,  1.20,  1.13,  1.06,
(PID.TID 0000.0001) >          1.00,  0.96,  0.93,  0.91,
(PID.TID 0000.0001) > sRef =  34.84, 34.84, 34.84, 34.84, 34.84, 34.84, 34.85, 34.85,
(PID.TID 0000.0001) >         34.85, 34.86, 34.87, 34.88, 34.90, 34.91, 34.93, 34.95,
(PID.TID 0000.0001) >         34.96, 34.98, 34.99, 35.00, 35.01, 35.02, 35.03, 35.04,
(PID.TID 0000.0001) >         35.05, 35.06, 35.07, 35.07, 35.07, 35.07, 35.07, 35.07,
(PID.TID 0000.0001) >         35.07, 35.06, 35.05, 35.04, 35.03, 35.02, 35.01, 34.99,
(PID.TID 0000.0001) >         34.97, 34.95, 34.92, 34.90, 34.87, 34.84, 34.81, 34.78,
(PID.TID 0000.0001) >         34.75, 34.72, 34.69, 34.67, 34.65, 34.62, 34.61, 34.60,
(PID.TID 0000.0001) >         34.59, 34.59, 34.58, 34.59, 34.59, 34.60, 34.60, 34.61,
(PID.TID 0000.0001) >         34.62, 34.63, 34.64, 34.65, 34.66, 34.67, 34.67, 34.68,
(PID.TID 0000.0001) >         34.69, 34.70, 34.71, 34.71, 34.72, 34.72, 34.73, 34.73,
(PID.TID 0000.0001) >         34.73, 34.74, 34.74, 34.74, 34.74, 34.75, 34.74, 34.74,
(PID.TID 0000.0001) >         34.74, 34.74, 34.74, 34.74, 34.74, 34.74, 34.73, 34.73,
(PID.TID 0000.0001) >         34.73, 34.73, 34.73, 34.73,
(PID.TID 0000.0001) > rhonil        = 1029.,
(PID.TID 0000.0001) > rhoConstFresh = 1000.,
(PID.TID 0000.0001) > eosType = 'JMD95Z',
(PID.TID 0000.0001) >#
(PID.TID 0000.0001) >## Various prescriptions for viscosity and diffusivity.
(PID.TID 0000.0001) > viscAr     = 5.e-04,
(PID.TID 0000.0001) > viscA4Grid = 0.0,
(PID.TID 0000.0001) > diffKhT    = 0.E0,
(PID.TID 0000.0001) > diffKhS    = 0.E0,
(PID.TID 0000.0001) > diffK4T    = 0.E10,
(PID.TID 0000.0001) > diffK4S    = 0.E10,
(PID.TID 0000.0001) > diffKrT    = 1.0e-5,
(PID.TID 0000.0001) > diffKrS    = 1.0e-5,
(PID.TID 0000.0001) > bottomDragQuadratic = 0.002,
(PID.TID 0000.0001) > no_slip_sides     = .TRUE.,
(PID.TID 0000.0001) > no_slip_bottom    = .TRUE.,
(PID.TID 0000.0001) > implicitDiffusion = .TRUE.,
(PID.TID 0000.0001) > implicitViscosity = .TRUE.,
(PID.TID 0000.0001) ># horizontal momentum closure
(PID.TID 0000.0001) > viscC4Leith   = 2.0,
(PID.TID 0000.0001) > viscC4Leithd  = 2.0,
(PID.TID 0000.0001) > viscA4GridMax = 0.8,
(PID.TID 0000.0001) >#
(PID.TID 0000.0001) >## Parameters that control numerical methods like advection schemes and
(PID.TID 0000.0001) >#  treatment of the free-surface.
(PID.TID 0000.0001) > tempAdvScheme = 7,
(PID.TID 0000.0001) > saltAdvScheme = 7,
(PID.TID 0000.0001) > implicitFreeSurface     = .TRUE.,
(PID.TID 0000.0001) > staggerTimeStep         = .TRUE.,
(PID.TID 0000.0001) > exactConserv            = .TRUE.,
(PID.TID 0000.0001) > vectorInvariantMomentum = .TRUE.,
(PID.TID 0000.0001) > useAreaViscLength       = .TRUE.,
(PID.TID 0000.0001) > highOrderVorticity      = .TRUE.,
(PID.TID 0000.0001) > multiDimAdvection       = .TRUE.,
(PID.TID 0000.0001) >#
(PID.TID 0000.0001) >## These parameters seem to be associated with the external forcing.
(PID.TID 0000.0001) > convertFW2Salt = -1.,
(PID.TID 0000.0001) > temp_EvPrRn    =  0.,
(PID.TID 0000.0001) > useRealFreshWaterFlux = .FALSE.,
(PID.TID 0000.0001) > allowFreezing         = .FALSE.,
(PID.TID 0000.0001) >#
(PID.TID 0000.0001) >## Parameters associated with bathymetry specification.
(PID.TID 0000.0001) > hFacMin   = 0.2,
(PID.TID 0000.0001) > hFacMinDr = 5.,
(PID.TID 0000.0001) >#
(PID.TID 0000.0001) >## Parameters for reading, writing, and misc numerical details.
(PID.TID 0000.0001) > globalFiles     = .TRUE.,
(PID.TID 0000.0001) > useSingleCpuIO  = .TRUE.,
(PID.TID 0000.0001) > readBinaryPrec  = 32,
(PID.TID 0000.0001) > writeBinaryPrec = 32,
(PID.TID 0000.0001) > debuglevel      = 2,
(PID.TID 0000.0001) >#
(PID.TID 0000.0001) >## Unused parameters.
(PID.TID 0000.0001) ># gravity = 9.81,
(PID.TID 0000.0001) ># viscA4Grid = 2.0E-3,
(PID.TID 0000.0001) ># viscAhGrid = 2.5E-4,
(PID.TID 0000.0001) ># bottomDraglinear    = 1.E-3,
(PID.TID 0000.0001) ># Note: nonlinFreeSurf=1 with rStar=0 breaks the code.
(PID.TID 0000.0001) ># nonlinFreeSurf = 4,
(PID.TID 0000.0001) ># select_rStar   = 1,
(PID.TID 0000.0001) ># hFacInf   = 0.1,
(PID.TID 0000.0001) ># hFacSup   = 5.,
(PID.TID 0000.0001) ># implicSurfPress = 0.6,
(PID.TID 0000.0001) ># implicDiv2DFlow = 0.6,
(PID.TID 0000.0001) ># useSingleCpuInput = .TRUE.,
(PID.TID 0000.0001) ># set to eccov4, make sure minbathy=20m first
(PID.TID 0000.0001) ># debuglevel = -1,
(PID.TID 0000.0001) ># useJamartWetPoints = .TRUE.,
(PID.TID 0000.0001) ># writeBinaryPrec=64,
(PID.TID 0000.0001) > /
(PID.TID 0000.0001) >### Elliptic solver parameters ------------------------------------------------
(PID.TID 0000.0001) > &PARM02
(PID.TID 0000.0001) > cg2dMaxIters       = 1000,
(PID.TID 0000.0001) ># cg2dTargetResidual = 1.E-8,
(PID.TID 0000.0001) > cg2dTargetResWunit = 1e-18,
(PID.TID 0000.0001) >#
(PID.TID 0000.0001) >#cg2dMaxIters       = 100,
(PID.TID 0000.0001) >#cg2dTargetResidual = 1.E-5,
(PID.TID 0000.0001) > &
(PID.TID 0000.0001) >### Time stepping parameters --------------------------------------------------
(PID.TID 0000.0001) > &PARM03
(PID.TID 0000.0001) > deltaT      =    240.,
(PID.TID 0000.0001) > nIter0      =  0,
(PID.TID 0000.0001) > nTimeSteps  =  15,
(PID.TID 0000.0001) > pChkptFreq  = 864000.,
(PID.TID 0000.0001) > monitorFreq =   240.,
(PID.TID 0000.0001) > abEps       = 0.1,
(PID.TID 0000.0001) >## It is unclear what these specify.
(PID.TID 0000.0001) > pickupStrictlyMatch = .FALSE.,
(PID.TID 0000.0001) > forcing_In_AB       = .FALSE.,
(PID.TID 0000.0001) > momDissip_In_AB     = .FALSE.,
(PID.TID 0000.0001) > dumpInitAndLast     = .FALSE.,
(PID.TID 0000.0001) > /
(PID.TID 0000.0001) >### Gridding parameters -------------------------------------------------------
(PID.TID 0000.0001) > &PARM04
(PID.TID 0000.0001) > usingSphericalPolarGrid=.TRUE.,
(PID.TID 0000.0001) >## Specify the height of each vertical level.
(PID.TID 0000.0001) > delR =   5.00,   5.00,   5.00,   5.00,   5.00,   5.00,   5.00,   5.00,   5.00,
(PID.TID 0000.0001) >          5.00,   5.00,   5.00,   5.00,   5.00,   5.00,   5.01,   5.01,   5.02,
(PID.TID 0000.0001) >          5.04,   5.07,   5.12,   5.20,   5.31,   5.49,   5.72,   6.04,   6.45,
(PID.TID 0000.0001) >          6.97,   7.62,   8.42,   9.36,  10.46,  11.72,  13.13,  14.70,  16.40,
(PID.TID 0000.0001) >         18.24,  20.18,  22.21,  24.29,  26.43,  28.57,  30.71,  32.79,  34.82,
(PID.TID 0000.0001) >         36.76,  38.60,  40.30,  41.87,  43.28,  44.54,  45.64,  46.58,  47.38,
(PID.TID 0000.0001) >         48.03,  48.55,  48.96,  49.29,  49.53,  49.72,  49.90,  50.11,  50.41,
(PID.TID 0000.0001) >         50.92,  51.69,  52.87,  54.54,  56.79,  59.67,  63.16,  67.26,  71.83,
(PID.TID 0000.0001) >         76.83,  82.11,  87.61,  93.22,  98.91, 104.64, 110.38, 116.12, 121.87,
(PID.TID 0000.0001) >        127.63, 133.38, 139.12, 144.87, 150.63, 156.38, 162.12, 167.87, 173.63,
(PID.TID 0000.0001) >        179.38, 185.12, 190.87, 196.63, 202.38, 208.12, 213.87, 219.63, 225.38,
(PID.TID 0000.0001) >        231.12,
(PID.TID 0000.0001) > xgOrigin=-81.583335876464844,
(PID.TID 0000.0001) > dxSpacing=0.041666666666667,
(PID.TID 0000.0001) > ygOrigin=26.855293273925781,
(PID.TID 0000.0001) > delYFile = 'delYFile',
(PID.TID 0000.0001) > /
(PID.TID 0000.0001) ># -----------------------------------------------------------------------------
(PID.TID 0000.0001) >### Bathymetry files and initial condition files
(PID.TID 0000.0001) > &PARM05
(PID.TID 0000.0001) > bathyFile       = 'bathy.bin',
(PID.TID 0000.0001) > hydrogThetaFile = 'T0_1815x532x100.bin',
(PID.TID 0000.0001) > hydrogSaltFile  = 'S0_1815x532x100.bin',
(PID.TID 0000.0001) > uVelInitFile    = 'U0_1815x532x100.bin',
(PID.TID 0000.0001) > vVelInitFile    = 'V0_1815x532x100.bin',
(PID.TID 0000.0001) > /
(PID.TID 0000.0001) 
(PID.TID 0000.0001)  INI_PARMS ; starts to read PARM01
(PID.TID 0000.0001)  INI_PARMS ; read PARM01 : OK
(PID.TID 0000.0001)  INI_PARMS ; starts to read PARM02
(PID.TID 0000.0001)  INI_PARMS ; read PARM02 : OK
(PID.TID 0000.0001)  INI_PARMS ; starts to read PARM03
(PID.TID 0000.0001)  INI_PARMS ; read PARM03 : OK
(PID.TID 0000.0001)  INI_PARMS ; starts to read PARM04
(PID.TID 0000.0001)  INI_PARMS ; read PARM04 : OK
(PID.TID 0000.0001)  INI_PARMS ; starts to read PARM05
(PID.TID 0000.0001)  INI_PARMS ; read PARM05 : OK
(PID.TID 0000.0001)  INI_PARMS: finished reading file "data"
(PID.TID 0000.0001)  PACKAGES_BOOT: opening data.pkg
(PID.TID 0000.0001)  OPEN_COPY_DATA_FILE: opening file data.pkg
(PID.TID 0000.0001) // =======================================================
(PID.TID 0000.0001) // Parameter file "data.pkg"
(PID.TID 0000.0001) // =======================================================
(PID.TID 0000.0001) ># Packages
(PID.TID 0000.0001) > &PACKAGES
(PID.TID 0000.0001) > useCAL         = .TRUE.,
(PID.TID 0000.0001) > useEXF         = .TRUE.,
(PID.TID 0000.0001) > useKPP         = .TRUE.,
(PID.TID 0000.0001) > useDiagnostics = .TRUE.,
(PID.TID 0000.0001) > useOBCS        = .TRUE.,
(PID.TID 0000.0001) ># useProfiles=.TRUE.,
(PID.TID 0000.0001) > /
(PID.TID 0000.0001) 
(PID.TID 0000.0001)  PACKAGES_BOOT: finished reading data.pkg
(PID.TID 0000.0001)  PACKAGES_BOOT: On/Off package Summary
 --------  pkgs with a standard "usePKG" On/Off switch in "data.pkg":  --------
 pkg/obcs                 compiled   and   used ( useOBCS                  = T )
 pkg/kpp                  compiled   and   used ( useKPP                   = T )
 pkg/cal                  compiled   and   used ( useCAL                   = T )
 pkg/exf                  compiled   and   used ( useEXF                   = T )
 pkg/diagnostics          compiled   and   used ( useDiagnostics           = T )
 -------- pkgs without standard "usePKG" On/Off switch in "data.pkg":  --------
 pkg/generic_advdiff      compiled   and   used ( useGAD                   = T )
 pkg/mom_common           compiled   and   used ( momStepping              = T )
 pkg/mom_vecinv           compiled   and   used ( +vectorInvariantMomentum = T )
 pkg/monitor              compiled   and   used ( monitorFreq > 0.         = T )
 pkg/debug                compiled but not used ( debugMode                = F )
 pkg/exch2                compiled   and   used
 pkg/rw                   compiled   and   used
 pkg/mdsio                compiled   and   used
(PID.TID 0000.0001)  PACKAGES_BOOT: End of package Summary
(PID.TID 0000.0001) 
(PID.TID 0000.0001) CAL_READPARMS: opening data.cal
(PID.TID 0000.0001)  OPEN_COPY_DATA_FILE: opening file data.cal
(PID.TID 0000.0001) // =======================================================
(PID.TID 0000.0001) // Parameter file "data.cal"
(PID.TID 0000.0001) // =======================================================
(PID.TID 0000.0001) >#
(PID.TID 0000.0001) ># *******************
(PID.TID 0000.0001) ># Calendar Parameters
(PID.TID 0000.0001) ># *******************
(PID.TID 0000.0001) > &CAL_NML
(PID.TID 0000.0001) > TheCalendar='gregorian',
(PID.TID 0000.0001) > startDate_1=20080101,
(PID.TID 0000.0001) > startDate_2=000000,
(PID.TID 0000.0001) > calendarDumps = .TRUE.,
(PID.TID 0000.0001) > &
(PID.TID 0000.0001) 
(PID.TID 0000.0001) CAL_READPARMS: finished reading data.cal
(PID.TID 0000.0001) EXF_READPARMS: opening data.exf
(PID.TID 0000.0001)  OPEN_COPY_DATA_FILE: opening file data.exf
(PID.TID 0000.0001) // =======================================================
(PID.TID 0000.0001) // Parameter file "data.exf"
(PID.TID 0000.0001) // =======================================================
(PID.TID 0000.0001) ># *********************
(PID.TID 0000.0001) ># External Forcing Data
(PID.TID 0000.0001) ># *********************
(PID.TID 0000.0001) >#
(PID.TID 0000.0001) > &EXF_NML_01
(PID.TID 0000.0001) >#
(PID.TID 0000.0001) > useAtmWind        = .TRUE.,
(PID.TID 0000.0001) >#
(PID.TID 0000.0001) >#TO COMBINE WITH ALLOW_ZENITH_ANGLE:
(PID.TID 0000.0001) > exf_albedo        = 0.1,
(PID.TID 0000.0001) > useExfZenIncoming = .TRUE.,
(PID.TID 0000.0001) > select_ZenAlbedo  = 1,
(PID.TID 0000.0001) >#
(PID.TID 0000.0001) > ocean_emissivity  = 0.97,
(PID.TID 0000.0001) > ice_emissivity    = 0.95,
(PID.TID 0000.0001) > snow_emissivity   = 0.95,
(PID.TID 0000.0001) > exf_iprec         = 32,
(PID.TID 0000.0001) > exf_iprec_obcs    = 32,
(PID.TID 0000.0001) > exf_yftype        = 'RL',
(PID.TID 0000.0001) > useExfYearlyFields= .TRUE.,
(PID.TID 0000.0001) > useExfCheckRange  = .FALSE.,
(PID.TID 0000.0001) > useRelativeWind   = .TRUE.,
(PID.TID 0000.0001) > &
(PID.TID 0000.0001) >#
(PID.TID 0000.0001) > &EXF_NML_02
(PID.TID 0000.0001) > apressurefile     = 'era5/ERA5_pres',
(PID.TID 0000.0001) > atempfile         = 'era5/ERA5_tmp2m_degC',
(PID.TID 0000.0001) > aqhfile           = 'era5/ERA5_spfh2m',
(PID.TID 0000.0001) > precipfile        = 'era5/ERA5_rain',
(PID.TID 0000.0001) > uwindfile         = 'era5/ERA5_u10m',
(PID.TID 0000.0001) > vwindfile         = 'era5/ERA5_v10m',
(PID.TID 0000.0001) > swdownfile        = 'era5/ERA5_dsw',
(PID.TID 0000.0001) > lwdownfile        = 'era5/ERA5_dlw',
(PID.TID 0000.0001) > tidePotfile       = 'tide_IAU_EARTH',
(PID.TID 0000.0001) > runofffile        = 'runoff1p2472-360x180x12.bin',
(PID.TID 0000.0001) >#
(PID.TID 0000.0001) > apressurestartdate1 = 19920101,
(PID.TID 0000.0001) > apressurestartdate2 = 000000,
(PID.TID 0000.0001) > apressureperiod   = 3600.0,
(PID.TID 0000.0001) >#
(PID.TID 0000.0001) > atempstartdate1   = 19920101,
(PID.TID 0000.0001) > atempstartdate2   = 000000,
(PID.TID 0000.0001) > atempperiod       = 3600.0,
(PID.TID 0000.0001) >#
(PID.TID 0000.0001) > aqhstartdate1     = 19920101,
(PID.TID 0000.0001) > aqhstartdate2     = 000000,
(PID.TID 0000.0001) > aqhperiod         = 3600.0,
(PID.TID 0000.0001) >#
(PID.TID 0000.0001) > precipstartdate1  = 19920101,
(PID.TID 0000.0001) > precipstartdate2  = 003000,
(PID.TID 0000.0001) > precipperiod      = 3600.0,
(PID.TID 0000.0001) >#
(PID.TID 0000.0001) > uwindstartdate1   = 19920101,
(PID.TID 0000.0001) > uwindstartdate2   = 000000,
(PID.TID 0000.0001) > uwindperiod       = 3600.0,
(PID.TID 0000.0001) >#
(PID.TID 0000.0001) > vwindstartdate1   = 19920101,
(PID.TID 0000.0001) > vwindstartdate2   = 000000,
(PID.TID 0000.0001) > vwindperiod       = 3600.0,
(PID.TID 0000.0001) >#
(PID.TID 0000.0001) > swdownstartdate1  = 19920101,
(PID.TID 0000.0001) > swdownstartdate2  = 003000,
(PID.TID 0000.0001) > swdownperiod      = 3600.0,
(PID.TID 0000.0001) >#
(PID.TID 0000.0001) > lwdownstartdate1  = 19920101,
(PID.TID 0000.0001) > lwdownstartdate2  = 003000,
(PID.TID 0000.0001) > lwdownperiod      = 3600.0,
(PID.TID 0000.0001) > tidePotstartdate1  = 19790101,
(PID.TID 0000.0001) > tidePotstartdate2  = 000000,
(PID.TID 0000.0001) > tidePotperiod      = 3600.0,
(PID.TID 0000.0001) ># "*period=-12" specifies monthly-mean forcing
(PID.TID 0000.0001) > runoffperiod      = -12,
(PID.TID 0000.0001) > &
(PID.TID 0000.0001) >#
(PID.TID 0000.0001) > &EXF_NML_03
(PID.TID 0000.0001) > exf_offset_atemp   = 273.15,
(PID.TID 0000.0001) > exf_inscal_swdown  = -1.0,
(PID.TID 0000.0001) > exf_inscal_lwdown  = -1.0,
(PID.TID 0000.0001) ># 1/365/24/3600 yr/s conversion, runoff [m/yr --> m/s]
(PID.TID 0000.0001) > exf_inscal_runoff = 3.1710e-08,
(PID.TID 0000.0001) > &
(PID.TID 0000.0001) >#
(PID.TID 0000.0001) > &EXF_NML_04
(PID.TID 0000.0001) ># runoff_interpMethod = 0,
(PID.TID 0000.0001) >#
(PID.TID 0000.0001) > apressure_lon0    =   0.0000000D0,
(PID.TID 0000.0001) > apressure_lon_inc =   0.2812500D0,
(PID.TID 0000.0001) > apressure_lat0    = -89.7848850D0,
(PID.TID 0000.0001) > apressure_lat_inc = 0.2786766D0,0.2803199D0,0.2806917D0,0.2808328D0,0.2809011D0,0.2809392D0,0.2809626D0,0.2809781D0,
(PID.TID 0000.0001) >                     0.2809888D0,0.2809965D0,0.2810023D0,0.2810067D0,0.2810102D0,0.2810129D0,0.2810151D0,
(PID.TID 0000.0001) >                     33*0.2810258D0,543*0.2810302D0,33*0.2810258D0,
(PID.TID 0000.0001) >                     0.2810151D0,0.2810129D0,0.2810102D0,0.2810067D0,0.2810023D0,0.2809965D0,0.2809888D0,0.2809781D0,
(PID.TID 0000.0001) >                     0.2809626D0,0.2809392D0,0.2809011D0,0.2808328D0,0.2806917D0,0.2803199D0,0.2786766D0,
(PID.TID 0000.0001) > apressure_nlon    = 1280,
(PID.TID 0000.0001) > apressure_nlat    = 640,
(PID.TID 0000.0001) >#
(PID.TID 0000.0001) > atemp_lon0        =   0.0000000D0,
(PID.TID 0000.0001) > atemp_lon_inc     =   0.2812500D0,
(PID.TID 0000.0001) > atemp_lat0        = -89.7848850D0,
(PID.TID 0000.0001) > atemp_lat_inc     = 0.2786766D0,0.2803199D0,0.2806917D0,0.2808328D0,0.2809011D0,0.2809392D0,0.2809626D0,0.2809781D0,
(PID.TID 0000.0001) >                     0.2809888D0,0.2809965D0,0.2810023D0,0.2810067D0,0.2810102D0,0.2810129D0,0.2810151D0,
(PID.TID 0000.0001) >                     33*0.2810258D0,543*0.2810302D0,33*0.2810258D0,
(PID.TID 0000.0001) >                     0.2810151D0,0.2810129D0,0.2810102D0,0.2810067D0,0.2810023D0,0.2809965D0,0.2809888D0,0.2809781D0,
(PID.TID 0000.0001) >                     0.2809626D0,0.2809392D0,0.2809011D0,0.2808328D0,0.2806917D0,0.2803199D0,0.2786766D0,
(PID.TID 0000.0001) > atemp_nlon        = 1280,
(PID.TID 0000.0001) > atemp_nlat        = 640,
(PID.TID 0000.0001) >#
(PID.TID 0000.0001) > aqh_lon0        =   0.0000000D0,
(PID.TID 0000.0001) > aqh_lon_inc     =   0.2812500D0,
(PID.TID 0000.0001) > aqh_lat0        = -89.7848850D0,
(PID.TID 0000.0001) > aqh_lat_inc     = 0.2786766D0,0.2803199D0,0.2806917D0,0.2808328D0,0.2809011D0,0.2809392D0,0.2809626D0,0.2809781D0,
(PID.TID 0000.0001) >                     0.2809888D0,0.2809965D0,0.2810023D0,0.2810067D0,0.2810102D0,0.2810129D0,0.2810151D0,
(PID.TID 0000.0001) >                     33*0.2810258D0,543*0.2810302D0,33*0.2810258D0,
(PID.TID 0000.0001) >                     0.2810151D0,0.2810129D0,0.2810102D0,0.2810067D0,0.2810023D0,0.2809965D0,0.2809888D0,0.2809781D0,
(PID.TID 0000.0001) >                     0.2809626D0,0.2809392D0,0.2809011D0,0.2808328D0,0.2806917D0,0.2803199D0,0.2786766D0,
(PID.TID 0000.0001) > aqh_nlon        = 1280,
(PID.TID 0000.0001) > aqh_nlat        = 640,
(PID.TID 0000.0001) >#
(PID.TID 0000.0001) > precip_lon0        =   0.0000000D0,
(PID.TID 0000.0001) > precip_lon_inc     =   0.2812500D0,
(PID.TID 0000.0001) > precip_lat0        = -89.7848850D0,
(PID.TID 0000.0001) > precip_lat_inc     = 0.2786766D0,0.2803199D0,0.2806917D0,0.2808328D0,0.2809011D0,0.2809392D0,0.2809626D0,0.2809781D0,
(PID.TID 0000.0001) >                     0.2809888D0,0.2809965D0,0.2810023D0,0.2810067D0,0.2810102D0,0.2810129D0,0.2810151D0,
(PID.TID 0000.0001) >                     33*0.2810258D0,543*0.2810302D0,33*0.2810258D0,
(PID.TID 0000.0001) >                     0.2810151D0,0.2810129D0,0.2810102D0,0.2810067D0,0.2810023D0,0.2809965D0,0.2809888D0,0.2809781D0,
(PID.TID 0000.0001) >                     0.2809626D0,0.2809392D0,0.2809011D0,0.2808328D0,0.2806917D0,0.2803199D0,0.2786766D0,
(PID.TID 0000.0001) > precip_nlon        = 1280,
(PID.TID 0000.0001) > precip_nlat        = 640,
(PID.TID 0000.0001) >#
(PID.TID 0000.0001) > uwind_lon0        =   0.0000000D0,
(PID.TID 0000.0001) > uwind_lon_inc     =   0.2812500D0,
(PID.TID 0000.0001) > uwind_lat0        = -89.7848850D0,
(PID.TID 0000.0001) > uwind_lat_inc     = 0.2786766D0,0.2803199D0,0.2806917D0,0.2808328D0,0.2809011D0,0.2809392D0,0.2809626D0,0.2809781D0,
(PID.TID 0000.0001) >                     0.2809888D0,0.2809965D0,0.2810023D0,0.2810067D0,0.2810102D0,0.2810129D0,0.2810151D0,
(PID.TID 0000.0001) >                     33*0.2810258D0,543*0.2810302D0,33*0.2810258D0,
(PID.TID 0000.0001) >                     0.2810151D0,0.2810129D0,0.2810102D0,0.2810067D0,0.2810023D0,0.2809965D0,0.2809888D0,0.2809781D0,
(PID.TID 0000.0001) >                     0.2809626D0,0.2809392D0,0.2809011D0,0.2808328D0,0.2806917D0,0.2803199D0,0.2786766D0,
(PID.TID 0000.0001) > uwind_nlon        = 1280,
(PID.TID 0000.0001) > uwind_nlat        = 640,
(PID.TID 0000.0001) >#
(PID.TID 0000.0001) > vwind_lon0        =   0.0000000D0,
(PID.TID 0000.0001) > vwind_lon_inc     =   0.2812500D0,
(PID.TID 0000.0001) > vwind_lat0        = -89.7848850D0,
(PID.TID 0000.0001) > vwind_lat_inc     = 0.2786766D0,0.2803199D0,0.2806917D0,0.2808328D0,0.2809011D0,0.2809392D0,0.2809626D0,0.2809781D0,
(PID.TID 0000.0001) >                     0.2809888D0,0.2809965D0,0.2810023D0,0.2810067D0,0.2810102D0,0.2810129D0,0.2810151D0,
(PID.TID 0000.0001) >                     33*0.2810258D0,543*0.2810302D0,33*0.2810258D0,
(PID.TID 0000.0001) >                     0.2810151D0,0.2810129D0,0.2810102D0,0.2810067D0,0.2810023D0,0.2809965D0,0.2809888D0,0.2809781D0,
(PID.TID 0000.0001) >                     0.2809626D0,0.2809392D0,0.2809011D0,0.2808328D0,0.2806917D0,0.2803199D0,0.2786766D0,
(PID.TID 0000.0001) > vwind_nlon        = 1280,
(PID.TID 0000.0001) > vwind_nlat        = 640,
(PID.TID 0000.0001) >#
(PID.TID 0000.0001) > swdown_lon0        =   0.0000000D0,
(PID.TID 0000.0001) > swdown_lon_inc     =   0.2812500D0,
(PID.TID 0000.0001) > swdown_lat0        = -89.7848850D0,
(PID.TID 0000.0001) > swdown_lat_inc     = 0.2786766D0,0.2803199D0,0.2806917D0,0.2808328D0,0.2809011D0,0.2809392D0,0.2809626D0,0.2809781D0,
(PID.TID 0000.0001) >                     0.2809888D0,0.2809965D0,0.2810023D0,0.2810067D0,0.2810102D0,0.2810129D0,0.2810151D0,
(PID.TID 0000.0001) >                     33*0.2810258D0,543*0.2810302D0,33*0.2810258D0,
(PID.TID 0000.0001) >                     0.2810151D0,0.2810129D0,0.2810102D0,0.2810067D0,0.2810023D0,0.2809965D0,0.2809888D0,0.2809781D0,
(PID.TID 0000.0001) >                     0.2809626D0,0.2809392D0,0.2809011D0,0.2808328D0,0.2806917D0,0.2803199D0,0.2786766D0,
(PID.TID 0000.0001) > swdown_nlon        = 1280,
(PID.TID 0000.0001) > swdown_nlat        = 640,
(PID.TID 0000.0001) >#
(PID.TID 0000.0001) > lwdown_lon0        =   0.0000000D0,
(PID.TID 0000.0001) > lwdown_lon_inc     =   0.2812500D0,
(PID.TID 0000.0001) > lwdown_lat0        = -89.7848850D0,
(PID.TID 0000.0001) > lwdown_lat_inc     = 0.2786766D0,0.2803199D0,0.2806917D0,0.2808328D0,0.2809011D0,0.2809392D0,0.2809626D0,0.2809781D0,
(PID.TID 0000.0001) >                     0.2809888D0,0.2809965D0,0.2810023D0,0.2810067D0,0.2810102D0,0.2810129D0,0.2810151D0,
(PID.TID 0000.0001) >                     33*0.2810258D0,543*0.2810302D0,33*0.2810258D0,
(PID.TID 0000.0001) >                     0.2810151D0,0.2810129D0,0.2810102D0,0.2810067D0,0.2810023D0,0.2809965D0,0.2809888D0,0.2809781D0,
(PID.TID 0000.0001) >                     0.2809626D0,0.2809392D0,0.2809011D0,0.2808328D0,0.2806917D0,0.2803199D0,0.2786766D0,
(PID.TID 0000.0001) > lwdown_nlon        = 1280,
(PID.TID 0000.0001) > lwdown_nlat        = 640,
(PID.TID 0000.0001) >#
(PID.TID 0000.0001) > tidePot_lon0       = 0.0D0,
(PID.TID 0000.0001) > tidePot_lon_inc    = 1.0D0,
(PID.TID 0000.0001) > tidePot_lat0       = -90.0D0,
(PID.TID 0000.0001) > tidePot_lat_inc    = 180*1.0D0,
(PID.TID 0000.0001) > tidePot_nlon       = 360,
(PID.TID 0000.0001) > tidePot_nlat       = 181,
(PID.TID 0000.0001) >#
(PID.TID 0000.0001) > runoff_lon0       = 0.50D0,
(PID.TID 0000.0001) > runoff_lon_inc    = 1.0D0,
(PID.TID 0000.0001) > runoff_lat0       = -89.5D0,
(PID.TID 0000.0001) > runoff_lat_inc    = 179*1.,
(PID.TID 0000.0001) > runoff_nlon       = 360,
(PID.TID 0000.0001) > runoff_nlat       = 180,
(PID.TID 0000.0001) > &
(PID.TID 0000.0001) >#
(PID.TID 0000.0001) > &EXF_NML_OBCS
(PID.TID 0000.0001) >  obcsSstartdate1   = 20071215,
(PID.TID 0000.0001) >  obcsSstartdate2   = 060000,
(PID.TID 0000.0001) >  obcsSperiod       = 2629800.0,
(PID.TID 0000.0001) >#
(PID.TID 0000.0001) >  obcsNstartdate1   = 20071215,
(PID.TID 0000.0001) >  obcsNstartdate2   = 060000,
(PID.TID 0000.0001) >  obcsNperiod       = 2629800.0,
(PID.TID 0000.0001) > &
(PID.TID 0000.0001) 
(PID.TID 0000.0001) EXF_READPARMS: reading EXF_NML_01
(PID.TID 0000.0001) EXF_READPARMS: reading EXF_NML_02
(PID.TID 0000.0001) EXF_READPARMS: reading EXF_NML_03
(PID.TID 0000.0001) EXF_READPARMS: reading EXF_NML_04
(PID.TID 0000.0001) EXF_READPARMS: reading EXF_NML_OBCS
(PID.TID 0000.0001) EXF_READPARMS: finished reading data.exf
(PID.TID 0000.0001)  OBCS_READPARMS: opening data.obcs
(PID.TID 0000.0001)  OPEN_COPY_DATA_FILE: opening file data.obcs
(PID.TID 0000.0001) // =======================================================
(PID.TID 0000.0001) // Parameter file "data.obcs"
(PID.TID 0000.0001) // =======================================================
(PID.TID 0000.0001) ># ***************
(PID.TID 0000.0001) ># Open boundaries
(PID.TID 0000.0001) ># ***************
(PID.TID 0000.0001) > &OBCS_PARM01
(PID.TID 0000.0001) >OB_Jnorth = 1815*531,
(PID.TID 0000.0001) >OB_Jsouth = 1815*2,
(PID.TID 0000.0001) >#
(PID.TID 0000.0001) > useOBCSprescribe=.TRUE.,
(PID.TID 0000.0001) ># useOBCSsponge=.true.,
(PID.TID 0000.0001) > OBCS_monSelect = 3,
(PID.TID 0000.0001) ># >0: use 1rst O. upwind adv-scheme @ OB (=1: only if outflow)
(PID.TID 0000.0001) > OBCS_u1_adv_T = 1,
(PID.TID 0000.0001) > OBCS_u1_adv_S = 1,
(PID.TID 0000.0001) >#
(PID.TID 0000.0001) > OBSsFile='OBSs_1815x100x26.bin',
(PID.TID 0000.0001) > OBStFile='OBSt_1815x100x26.bin',
(PID.TID 0000.0001) > OBSuFile='OBSu_1815x100x26.bin',
(PID.TID 0000.0001) > OBSvFile='OBSv_1815x100x26.bin',
(PID.TID 0000.0001) >#
(PID.TID 0000.0001) > OBNsFile='OBNs_1815x100x26.bin',
(PID.TID 0000.0001) > OBNtFile='OBNt_1815x100x26.bin',
(PID.TID 0000.0001) > OBNuFile='OBNu_1815x100x26.bin',
(PID.TID 0000.0001) > OBNvFile='OBNv_1815x100x26.bin',
(PID.TID 0000.0001) ># Balancing
(PID.TID 0000.0001) > useOBCSbalance = .TRUE.,
(PID.TID 0000.0001) > OBCS_balanceFacN = -1,
(PID.TID 0000.0001) > OBCS_balanceFacS = -1,
(PID.TID 0000.0001) >## *****************************************
(PID.TID 0000.0001) >## Tidal BC parameters
(PID.TID 0000.0001) >## *****************************************
(PID.TID 0000.0001) > useOBCStides = .TRUE.,
(PID.TID 0000.0001) >##components   = M2       S2     N2       K2       K1      O1       P1       Q1       Mf         Mm
(PID.TID 0000.0001) >##periods (hr) = 12.4206  12     12.6583  11.9672  23.9345 25.8193  24.0659  26.8684  327.8599   661.31
(PID.TID 0000.0001) >##period(sec)  = 44714.165 43200.001 45570.054 43082.05 86164.077 92949.636 86637.2 96726.086 1180295.5 2380715.9
(PID.TID 0000.0001) >##components      m2        s2        n2        k2        k1        o1        p1        q1        mf        mm        m4        ms4       mn4
(PID.TID 0000.0001) >##period (hr): 12.420601 12.000000 12.658348 11.967236 23.934466 25.819343 24.065889 26.868357 327.859874 661.309962 6.210303 6.103339 6.269178
(PID.TID 0000.0001) >##period (s):  44714.165192 43200.001287 45570.053512 43082.050319 86164.077005 92949.635701 86637.199772 96726.085703 1180295.545550 2380715.863587 22357.090551 21972.021930 22569.042448
(PID.TID 0000.0001) > tidalPeriod  = 44714.165 43200.001 45570.054 43082.050 86164.077 92949.636 86637.200 96726.086 1180295.546 2380715.864 22357.091 21972.022 22569.042,
(PID.TID 0000.0001) > OBSamFile='OBSam_1815x13.bin',
(PID.TID 0000.0001) > OBNamFile='OBNam_1815x13.bin',
(PID.TID 0000.0001) > OBSphFile='OBSph_1815x13.bin',
(PID.TID 0000.0001) > OBNphFile='OBNph_1815x13.bin',
(PID.TID 0000.0001) > &
(PID.TID 0000.0001) ># *****************************************
(PID.TID 0000.0001) ># Sponge Layer Parameters.
(PID.TID 0000.0001) ># *****************************************
(PID.TID 0000.0001) > &OBCS_PARM03
(PID.TID 0000.0001) ># Urelaxobcsinner=2629800.E0,
(PID.TID 0000.0001) ># Urelaxobcsbound=43200.E0,
(PID.TID 0000.0001) >#
(PID.TID 0000.0001) ># Vrelaxobcsinner=2629800.E0,
(PID.TID 0000.0001) ># Vrelaxobcsbound=43200.E0,
(PID.TID 0000.0001) >#
(PID.TID 0000.0001) ># spongeThickness=16,
(PID.TID 0000.0001) > &
(PID.TID 0000.0001) 
(PID.TID 0000.0001)  OBCS_READPARMS: finished reading data.obcs
(PID.TID 0000.0001)  OB_indexUnset = /* unset OB index value (i.e. no OB) */
(PID.TID 0000.0001)                       0
(PID.TID 0000.0001)     ;
(PID.TID 0000.0001)  Northern OB global indices : OB_Jnorth =
(PID.TID 0000.0001)  1815 @      531                            /* I =  1:*** */
(PID.TID 0000.0001)  Southern OB global indices : OB_Jsouth =
(PID.TID 0000.0001)  1815 @        2                            /* I =  1:*** */
(PID.TID 0000.0001)  Eastern  OB global indices : OB_Ieast =
(PID.TID 0000.0001)   532 @        0                            /* J =  1:532 */
(PID.TID 0000.0001)  Western  OB global indices : OB_Iwest =
(PID.TID 0000.0001)   532 @        0                            /* J =  1:532 */
(PID.TID 0000.0001) 
(PID.TID 0000.0001)  KPP_READPARMS: opening data.kpp
(PID.TID 0000.0001)  OPEN_COPY_DATA_FILE: opening file data.kpp
(PID.TID 0000.0001) // =======================================================
(PID.TID 0000.0001) // Parameter file "data.kpp"
(PID.TID 0000.0001) // =======================================================
(PID.TID 0000.0001) ># KPP parameters
(PID.TID 0000.0001) > &KPP_PARM01
(PID.TID 0000.0001) >### KPPmixingMaps   = .FALSE.,
(PID.TID 0000.0001) >### KPPwriteState   = .FALSE.,
(PID.TID 0000.0001) >### kpp_dumpFreq    = 0.,
(PID.TID 0000.0001) >### kpp_tavefreq    = 0.,
(PID.TID 0000.0001) >### Ricr            = 0.3559,
(PID.TID 0000.0001) >### Riinfty         = 0.6998,
(PID.TID 0000.0001) > &
(PID.TID 0000.0001) 
(PID.TID 0000.0001)  KPP_READPARMS ; starts to read KPP_PARM01
(PID.TID 0000.0001)  KPP_READPARMS ; read KPP_PARM01 : OK
(PID.TID 0000.0001)  KPP_READPARMS: finished reading data.kpp
(PID.TID 0000.0001)  DIAGNOSTICS_READPARMS: opening data.diagnostics
(PID.TID 0000.0001)  OPEN_COPY_DATA_FILE: opening file data.diagnostics
(PID.TID 0000.0001) // =======================================================
(PID.TID 0000.0001) // Parameter file "data.diagnostics"
(PID.TID 0000.0001) // =======================================================
(PID.TID 0000.0001) ># Diagnostic Package Choices
(PID.TID 0000.0001) >#-----------------
(PID.TID 0000.0001) ># for each output-stream:
(PID.TID 0000.0001) >#  filename(n) : prefix of the output file name (only 8.c long) for outp.stream n
(PID.TID 0000.0001) >#  frequency(n):< 0 : write snap-shot output every multiple of |frequency| (iter)
(PID.TID 0000.0001) >#               > 0 : write time-average output every multiple of frequency (iter)
(PID.TID 0000.0001) >#  levels(:,n) : list of levels to write to file (Notes: declared as REAL)
(PID.TID 0000.0001) >#                 when this entry is missing, select all common levels of this list
(PID.TID 0000.0001) >#  fields(:,n) : list of diagnostics fields (8.c) (see "available_diagnostics" file
(PID.TID 0000.0001) >#                 for the list of all available diag. in this particular config)
(PID.TID 0000.0001) >#--------------------------------------------------------------------
(PID.TID 0000.0001) >#
(PID.TID 0000.0001) > &diagnostics_list
(PID.TID 0000.0001) >#
(PID.TID 0000.0001) >   dumpatlast = .TRUE.,
(PID.TID 0000.0001) >#
(PID.TID 0000.0001) >#---
(PID.TID 0000.0001) >  frequency(1) = 3600.0,
(PID.TID 0000.0001) >   fields(1:5,1) = 'ETAN', 'oceTAUX', 'oceTAUY', 'EXFuwind', 'EXFvwind',
(PID.TID 0000.0001) >   filename(1) = 'diags/surface',
(PID.TID 0000.0001) >#---
(PID.TID 0000.0001) >  frequency(2) = 2592000.0,
(PID.TID 0000.0001) >   fields(1:9,2)='THETA','SALT','UVEL','VVEL','WVEL','UVELSQ','VVELSQ','WTHMASS','WSLTMASS',
(PID.TID 0000.0001) >   filename(2) = 'diags/interior',
(PID.TID 0000.0001) >#   levels(1:55,2) =  1., 2., 3., 4., 5., 6., 7., 8., 9.,10.,11.,13.,15.,
(PID.TID 0000.0001) >#                     17.,19.,21.,23.,25.,27.,29.,31.,33.,35.,37.,39.,41.,43.,45.,
(PID.TID 0000.0001) >#                     47.,49.,51.,53.,55.,57.,59.,61.,63.,65.,67.,69.,71.,73.,75.,
(PID.TID 0000.0001) >#                     77.,79.,81.,83.,85.,87.,89.,91.,93.,95.,97.,99.,
(PID.TID 0000.0001) > /
(PID.TID 0000.0001) >#
(PID.TID 0000.0001) >#
(PID.TID 0000.0001) ># Parameter for Diagnostics of per level statistics:
(PID.TID 0000.0001) >#-----------------
(PID.TID 0000.0001) ># for each output-stream:
(PID.TID 0000.0001) >#  stat_fname(n) : prefix of the output file name (only 8.c long) for outp.stream n
(PID.TID 0000.0001) >#  stat_freq(n):< 0 : write snap-shot output every |stat_freq| seconds
(PID.TID 0000.0001) >#               > 0 : write time-average output every stat_freq seconds
(PID.TID 0000.0001) >#  stat_phase(n)    : write at time = stat_phase + multiple of |stat_freq|
(PID.TID 0000.0001) >#  stat_region(:,n) : list of "regions" (default: 1 region only=global)
(PID.TID 0000.0001) >#  stat_fields(:,n) : list of diagnostics fields (8.c) (see "available_diagnostics.log"
(PID.TID 0000.0001) >#                 file for the list of all available diag. in this particular config)
(PID.TID 0000.0001) >#-----------------
(PID.TID 0000.0001) > &DIAG_STATIS_PARMS
(PID.TID 0000.0001) ># diagSt_regMaskFile='basin_masks_eccollc_90x50.bin',
(PID.TID 0000.0001) ># nSetRegMskFile=1,
(PID.TID 0000.0001) ># set_regMask(1)= 1,  1,  1,  1,  1,  1,  1,  1,  1,
(PID.TID 0000.0001) >#                 1,  1,  1,  1,  1,  1,  1,  1
(PID.TID 0000.0001) ># val_regMask(1)= 1., 2., 3., 4., 5., 6., 7., 8., 9.,
(PID.TID 0000.0001) >#                10.,11.,12.,13.,14.,15.,16.,17.
(PID.TID 0000.0001) >##---
(PID.TID 0000.0001) ># stat_fields(1,1)= 'ETAN    ','ETANSQ  ','DETADT2 ',
(PID.TID 0000.0001) >#                   'UVEL    ','VVEL    ','WVEL    ',
(PID.TID 0000.0001) >#                   'THETA   ','SALT    ',
(PID.TID 0000.0001) >#    stat_fname(1)= 'dynStDiag',
(PID.TID 0000.0001) >#     stat_freq(1)= 3153600.,
(PID.TID 0000.0001) ># stat_region(1,1)=  1, 2, 3, 4, 5, 6, 7, 8, 9,
(PID.TID 0000.0001) >#                   10,11,12,13,14,15,16,17
(PID.TID 0000.0001) >##---
(PID.TID 0000.0001) ># stat_fields(1,2)= 'oceTAUX ','oceTAUY ',
(PID.TID 0000.0001) >#                   'surForcT','surForcS','TFLUX   ','SFLUX   ',
(PID.TID 0000.0001) >#                   'oceQnet ','oceSflux','oceFWflx',
(PID.TID 0000.0001) >#    stat_fname(2)= 'surfStDiag',
(PID.TID 0000.0001) >#     stat_freq(2)= 3153600.,
(PID.TID 0000.0001) ># stat_region(1,2)=  1, 2, 3, 4, 5, 6, 7, 8, 9,
(PID.TID 0000.0001) >#                   10,11,12,13,14,15,16,17
(PID.TID 0000.0001) > /
(PID.TID 0000.0001) 
(PID.TID 0000.0001) S/R DIAGNOSTICS_READPARMS, read namelist "diagnostics_list": start
(PID.TID 0000.0001) S/R DIAGNOSTICS_READPARMS, read namelist "diagnostics_list": OK
(PID.TID 0000.0001) S/R DIAGNOSTICS_READPARMS, read namelist "DIAG_STATIS_PARMS": start
(PID.TID 0000.0001) S/R DIAGNOSTICS_READPARMS, read namelist "DIAG_STATIS_PARMS": OK
(PID.TID 0000.0001)  DIAGNOSTICS_READPARMS: global parameter summary:
(PID.TID 0000.0001)  dumpAtLast = /* always write time-ave diags at the end */
(PID.TID 0000.0001)                   T
(PID.TID 0000.0001)     ;
(PID.TID 0000.0001)  diag_mnc =   /* write NetCDF output files */
(PID.TID 0000.0001)                   F
(PID.TID 0000.0001)     ;
(PID.TID 0000.0001)  useMissingValue = /* put MissingValue where mask = 0 */
(PID.TID 0000.0001)                   F
(PID.TID 0000.0001)     ;
(PID.TID 0000.0001)  diagCG_maxIters = /* max number of iters in diag_cg2d */
(PID.TID 0000.0001)                    1000
(PID.TID 0000.0001)     ;
(PID.TID 0000.0001)  diagCG_resTarget = /* residual target for diag_cg2d */
(PID.TID 0000.0001)                 1.000000000000000E-07
(PID.TID 0000.0001)     ;
(PID.TID 0000.0001)  diagCG_pcOffDFac = /* preconditioner off-diagonal factor */
(PID.TID 0000.0001)                 9.611687812379854E-01
(PID.TID 0000.0001)     ;
(PID.TID 0000.0001) -----------------------------------------------------
(PID.TID 0000.0001)  DIAGNOSTICS_READPARMS: active diagnostics summary:
(PID.TID 0000.0001) -----------------------------------------------------
(PID.TID 0000.0001) Creating Output Stream: diags/surface
(PID.TID 0000.0001) Output Frequency:       3600.000000 ; Phase:           0.000000
(PID.TID 0000.0001)  Averaging Freq.:       3600.000000 , Phase:           0.000000 , Cycle:   1
(PID.TID 0000.0001)  missing value: -9.990000000000E+02
(PID.TID 0000.0001)  Levels:    will be set later
(PID.TID 0000.0001)  Fields:    ETAN     oceTAUX  oceTAUY  EXFuwind EXFvwind
(PID.TID 0000.0001) Creating Output Stream: diags/interior
(PID.TID 0000.0001) Output Frequency:    2592000.000000 ; Phase:           0.000000
(PID.TID 0000.0001)  Averaging Freq.:    2592000.000000 , Phase:           0.000000 , Cycle:   1
(PID.TID 0000.0001)  missing value: -9.990000000000E+02
(PID.TID 0000.0001)  Levels:    will be set later
(PID.TID 0000.0001)  Fields:    THETA    SALT     UVEL     VVEL     WVEL     UVELSQ   VVELSQ   WTHMASS  WSLTMASS
(PID.TID 0000.0001) -----------------------------------------------------
(PID.TID 0000.0001)  DIAGNOSTICS_READPARMS: statistics diags. summary:
(PID.TID 0000.0001) -----------------------------------------------------
(PID.TID 0000.0001) 
(PID.TID 0000.0001) SET_PARMS: done
(PID.TID 0000.0001)  MDS_READVEC_LOC: open file: delYFile
(PID.TID 0000.0001) S/R LOAD_GRID_SPACING: delY loaded from file: delYFile
(PID.TID 0000.0001) Enter INI_VERTICAL_GRID: setInterFDr=    T ; setCenterDr=    F
(PID.TID 0000.0001) %MON XC_max                       =  -5.9791692097973E+00
(PID.TID 0000.0001) %MON XC_min                       =  -8.1562502543132E+01
(PID.TID 0000.0001) %MON XC_mean                      =  -4.3770835876465E+01
(PID.TID 0000.0001) %MON XC_sd                        =   2.1831053740198E+01
(PID.TID 0000.0001) %MON XG_max                       =  -6.0000025431306E+00
(PID.TID 0000.0001) %MON XG_min                       =  -8.1583335876465E+01
(PID.TID 0000.0001) %MON XG_mean                      =  -4.3791669209798E+01
(PID.TID 0000.0001) %MON XG_sd                        =   2.1831053740198E+01
(PID.TID 0000.0001) %MON DXC_max                      =   4.1321680787049E+03
(PID.TID 0000.0001) %MON DXC_min                      =   3.3626505081640E+03
(PID.TID 0000.0001) %MON DXC_mean                     =   3.7612303897913E+03
(PID.TID 0000.0001) %MON DXC_sd                       =   2.2394617155187E+02
(PID.TID 0000.0001) %MON DXF_max                      =   4.1321680787049E+03
(PID.TID 0000.0001) %MON DXF_min                      =   3.3626505081640E+03
(PID.TID 0000.0001) %MON DXF_mean                     =   3.7612303897913E+03
(PID.TID 0000.0001) %MON DXF_sd                       =   2.2394617155187E+02
(PID.TID 0000.0001) %MON DXG_max                      =   4.1327922661025E+03
(PID.TID 0000.0001) %MON DXG_min                      =   3.3634327493196E+03
(PID.TID 0000.0001) %MON DXG_mean                     =   3.7619548015447E+03
(PID.TID 0000.0001) %MON DXG_sd                       =   2.2390117566628E+02
(PID.TID 0000.0001) %MON DXV_max                      =   4.1327922661025E+03
(PID.TID 0000.0001) %MON DXV_min                      =   3.3634327493196E+03
(PID.TID 0000.0001) %MON DXV_mean                     =   3.7619548015447E+03
(PID.TID 0000.0001) %MON DXV_sd                       =   2.2390117566628E+02
(PID.TID 0000.0001) %MON YC_max                       =   4.3456317901611E+01
(PID.TID 0000.0001) %MON YC_min                       =   2.6872378349304E+01
(PID.TID 0000.0001) %MON YC_mean                      =   3.5432289801146E+01
(PID.TID 0000.0001) %MON YC_sd                        =   4.8002291157044E+00
(PID.TID 0000.0001) %MON YG_max                       =   4.3442249298096E+01
(PID.TID 0000.0001) %MON YG_min                       =   2.6855293273926E+01
(PID.TID 0000.0001) %MON YG_mean                      =   3.5416674112019E+01
(PID.TID 0000.0001) %MON YG_sd                        =   4.8011056669537E+00
(PID.TID 0000.0001) %MON DYC_max                      =   3.7984208896988E+03
(PID.TID 0000.0001) %MON DYC_min                      =   3.1290718017248E+03
(PID.TID 0000.0001) %MON DYC_mean                     =   3.4722257235968E+03
(PID.TID 0000.0001) %MON DYC_sd                       =   1.9455786110779E+02
(PID.TID 0000.0001) %MON DYF_max                      =   3.7989510252033E+03
(PID.TID 0000.0001) %MON DYF_min                      =   3.1282235849176E+03
(PID.TID 0000.0001) %MON DYF_mean                     =   3.4722257235968E+03
(PID.TID 0000.0001) %MON DYF_sd                       =   1.9510147754555E+02
(PID.TID 0000.0001) %MON DYG_max                      =   3.7989510252033E+03
(PID.TID 0000.0001) %MON DYG_min                      =   3.1282235849176E+03
(PID.TID 0000.0001) %MON DYG_mean                     =   3.4722257235968E+03
(PID.TID 0000.0001) %MON DYG_sd                       =   1.9510147754555E+02
(PID.TID 0000.0001) %MON DYU_max                      =   3.7984208896988E+03
(PID.TID 0000.0001) %MON DYU_min                      =   3.1290718017248E+03
(PID.TID 0000.0001) %MON DYU_mean                     =   3.4722257235968E+03
(PID.TID 0000.0001) %MON DYU_sd                       =   1.9455786110779E+02
(PID.TID 0000.0001) %MON RA_max                       =   1.5697903926271E+07
(PID.TID 0000.0001) %MON RA_min                       =   1.0519122521772E+07
(PID.TID 0000.0001) %MON RA_mean                      =   1.3103531521021E+07
(PID.TID 0000.0001) %MON RA_sd                        =   1.5091514322670E+06
(PID.TID 0000.0001) %MON RAW_max                      =   1.5697903926271E+07
(PID.TID 0000.0001) %MON RAW_min                      =   1.0519122521772E+07
(PID.TID 0000.0001) %MON RAW_mean                     =   1.3103531521021E+07
(PID.TID 0000.0001) %MON RAW_sd                       =   1.5091514322670E+06
(PID.TID 0000.0001) %MON RAS_max                      =   1.5693341326465E+07
(PID.TID 0000.0001) %MON RAS_min                      =   1.0524423130684E+07
(PID.TID 0000.0001) %MON RAS_mean                     =   1.3105797689205E+07
(PID.TID 0000.0001) %MON RAS_sd                       =   1.5058753940222E+06
(PID.TID 0000.0001) %MON RAZ_max                      =   1.5693341326465E+07
(PID.TID 0000.0001) %MON RAZ_min                      =   1.0524423130684E+07
(PID.TID 0000.0001) %MON RAZ_mean                     =   1.3105797689205E+07
(PID.TID 0000.0001) %MON RAZ_sd                       =   1.5058753940222E+06
(PID.TID 0000.0001) %MON AngleCS_max                  =   1.0000000000000E+00
(PID.TID 0000.0001) %MON AngleCS_min                  =   1.0000000000000E+00
(PID.TID 0000.0001) %MON AngleCS_mean                 =   1.0000000000000E+00
(PID.TID 0000.0001) %MON AngleCS_sd                   =   1.1102230246252E-16
(PID.TID 0000.0001) %MON AngleSN_max                  =   0.0000000000000E+00
(PID.TID 0000.0001) %MON AngleSN_min                  =   0.0000000000000E+00
(PID.TID 0000.0001) %MON AngleSN_mean                 =   0.0000000000000E+00
(PID.TID 0000.0001) %MON AngleSN_sd                   =   0.0000000000000E+00
(PID.TID 0000.0001)  MDS_READ_FIELD: opening global file: bathy.bin
(PID.TID 0000.0001) // =======================================================
(PID.TID 0000.0001) // Field Model R_low (ini_masks_etc)
(PID.TID 0000.0001) // CMIN =         -5.190364257812500E+03
(PID.TID 0000.0001) // CMAX =         -5.000000000000000E+00
(PID.TID 0000.0001) // CINT =          1.920505280671296E+02
(PID.TID 0000.0001) // SYMBOLS (CMIN->CMAX): -abcdefghijklmnopqrstuvwxyz+
(PID.TID 0000.0001) //                  0.0: .
(PID.TID 0000.0001) // RANGE I (Lo:Hi:Step):(    -3:   125:     1)
(PID.TID 0000.0001) // RANGE J (Lo:Hi:Step):(    80:    -3:    -1)
(PID.TID 0000.0001) // RANGE K (Lo:Hi:Step):(   1:   1:   1)
(PID.TID 0000.0001) // =======================================================
(PID.TID 0000.0001) K =   1
(PID.TID 0000.0001) //                I=6       I=16      I=26      I=36      I=46      I=56      I=66      I=76      I=86      I=96      I=106     I=116
(PID.TID 0000.0001) // |--J--|321012345|789012345|789012345|789012345|789012345|789012345|789012345|789012345|789012345|789012345|789012345|789012345|789012345
(PID.TID 0000.0001) //     80 ..............+++++++++++++++++++++++zyyyxxxwwwwwwwwwwwwwwwwwwwwwwwwwwwwwwwwwwwwwwwwwvvvvvwwwwwwwvvvvvvvvvvvvvvvvvvvuurmigedbbaaa
(PID.TID 0000.0001) //     79 ...............++++++++++++++++++++++zyyyxxxwwwwwwwwwwwwwwwwwwwwwwwwwwwwwwwwwwwwwwwwwvvvvvwwwwwwwwvvvvwwvvvvvvvvvvvuutrlhfecbaaaa
(PID.TID 0000.0001) //     78 ...............++++++++++++++++++++++zzyyxxxxwwwwwwwwwwwwwwwwwwwwwwwwwwwwwwwwwwwwwwwvvvvvvwwwwvvwwwvvwwvvvvvvvvvvvvuutqkgedbaaaaa
(PID.TID 0000.0001) //     77 ...............++++++++++++++++++++++zzyyxxxxwwwwwwwwwwwwwwwwwwwwwwwwwwwwwwwwwwwwwwvvvvvvvwwwwvvwwwwvvvvvvvvvvvvvvuuusokgecbaaaaa
(PID.TID 0000.0001) //     76 ................+++++++++++++++++++++zzyyxxxxwwwwwwwwwwwwwwwwwwwwwwwwwwwwwwwwwwwwwwvvvvvvvwwwwwvwwwvvvvvvwwvvvvvuvvvusokgecbaaaaa
(PID.TID 0000.0001) //     75 ................++++++++++++++++++++++zyyxxxxwwwwwwwwwwwwwwwwwwwwwwwwwwwwwwwwwwwwwvvvvvvvvwwwwwvwwvvvvvvvwwvvvvvvvvvuspkhedbaaaa-
(PID.TID 0000.0001) //     74 ................++++++++++++++++++++++zzyyxxxwwwwwwwwwwwwwwwwwwwwwwwwwwwwwwwwwwwwvvvvvvvvvwwwwwvvvvvvvvvvwvvvvvvvvvuutpmjfdbaaaa-
(PID.TID 0000.0001) //     73 .................+++++++++++++++++++++zzyyyxxwwwwwwwwwwwwwwwwwwwwwwwwwwwwwwwwwwwvvvvvvvvvvwvvvwvvvvvvvvvvvvvvvvvvvuuutplifdaaaaaa
(PID.TID 0000.0001) //     72 .................+++++++++++++++++++++zzzyyxxxwwwwwwwwwwwwwwwwwwwwwwwwwwwwwwwwwwvvvvvvvvvvwvvvvvvvvvvvvvvvvvvvvvvvuuutplhecaaaaaa
(PID.TID 0000.0001) //     71 ..................++++++++++++++++++++zzzyyxxxwwwwwwwwwwwwwwwwwwwwwwwwwwwwwwwwwvvvvvvvvvvvvvvvvvvvvvvvvvvvvvvvvvvvuuutqkgdbaaaaaa
(PID.TID 0000.0001) //     70 ..................++++++++++++++++++++zzzyyxxxwwwwwwwwwwwwwwwwwwwwwwwwwwwwwwwwvvvvvvvvvvvvvvvvvvvvvvvvvvvvuvvvvvvvuuutqlfcaaaaaaa
(PID.TID 0000.0001) //     69 ..................+++++++++++++++++++++zzyyxxxwwwwwwwwwwwwwwwwwwwwwwwwwwwwwwwwvvvvvvvvvvvvvvvvvvvvvvvvvvvuuuvvvvvvuuutqlebaaaaaaa
(PID.TID 0000.0001) //     68 ...................++++++++++++++++++++zzyyxxxwwwwwwwwwwwwwwwwwwwwwwwwwwwwwwwvvvvvvvvvvvvvvvvvvvvvvvvvvvuuuuvvvvvvuuuspkeaaaaaaaa
(PID.TID 0000.0001) //     67 ...................++++++++++++++++++++zzyyyxxwwwwwwwwwwwwwwwwwwwwwwwwwwwwwwvvvvvvvvvvvvvvvvvvvvvvvvvvvvuuuuvuuvvvuuutpkeaaaaaaaa
(PID.TID 0000.0001) //     66 ....................+++++++++++++++++++zzzyyxxxwwwwwwwwwwwwwwwwwwwwwwwwwwwwwvvvvvvvvvvvvvvvvvvvvvvuuvvvvuuuuuuuvvvuuutqjdaaaaaaaa
(PID.TID 0000.0001) //     65 ....................+++++++++++++++++++zzzyyxxxwwwwwwwwwwwwwwwwwwwwwwwwwwwwvvvvvvvvvvvvvvvvvvvvvvvvuuvvvuuuuuuuuuvuuusplgbaaaaaaa
(PID.TID 0000.0001) //     64 .....................++++++++++++++++++zzzyyyxxwwwwwwwwwwwwwwwwwwwwwwwwwwwwvvvvvvvvvvvvvvvvvvvvvvvvuuvvuuuuuuuuuuuuuutqnicaaaaaaa
(PID.TID 0000.0001) //     63 .....................+++++++++++++++++++zzyyyxxwwwwwwwwwwwwwwwwwwwwwwwwwwwvvvvvvvvvvvvvvvvvvvvvvvvvuuvvuuuuuuuuuuuuuutrojcaaaaaaa
(PID.TID 0000.0001) //     62 ......................++++++++++++++++++zzzyyxxxwwwwwwwwwwwwwwwwwwwwwwwwwwvvvvvvvvvvvvvvvvvvvvvvvvuuuvvuuuuuuuuuuuuuutrpjcaaaaaa-
(PID.TID 0000.0001) //     61 .......................+++++++++++++++++zzzyyyxxwwwwwwwwwwwwwwwwwwwwwwwwwwvvvvvvvvvvvvvvvvvvvvvvvuuuuvuuuuuuuvvvuuuuutsojcaaaaaa-
(PID.TID 0000.0001) //     60 .......................+++++++++++++++++zzzyyyxxwwwwwwwwwwwwwwwwwwwwwwwwwvvvvvvvvvvvvvvvvvvvvvvvvvvvvvvvvvuuuvvvuuuuutspjbaaaaaaa
(PID.TID 0000.0001) //     59 .......................+++++++++++++++++zzzyyyxxwwwwwwwwwwwwwwwwwwwwwwwwwvvvvvvvvvvvvvvvvvvvvvvvvvvvvvvvvvuuuvvvuuuuuutqkda-aaaaa
(PID.TID 0000.0001) //     58 ........................++++++++++++++++zzzzyyxxxwwwwwwwwwwwwwwwwwwwwwwwwvvvvvvvvvvvvvvvvvvvvvvuuvvvvvvvvvuuuvvvuuuuuutrngaaaaaaa
(PID.TID 0000.0001) //     57 ........................+++++++++++++++++zzzyyyxxwwwwwwwwwwwwwwwwwwwwwwwvvvvvvvvvvvvvvvvvvvvvvvuuvvvvvvvvuuuuvvuuuuuuttsohbaaaaaa
(PID.TID 0000.0001) //     56 .........................++++++++++++++++zzzyyyxxwwwwwwwwwwwwwwwwwwwwwwwvvvvvvvvvvvvvvvvvvvvvvvvvvvvvvvvvuuuuuuuuuuutttsoicaaaaaa
(PID.TID 0000.0001) //     55 ..........................+++++++++++++++zzzyyyxxwwwwwwwwwwwwwwwwwwwwwwwvvvvvvvvvvvvvvvvvvvvvvvvvvvvvvvvuuuuvuuuuuuuttttpicaaaaaa
(PID.TID 0000.0001) //     54 ...........................++++++++++++++zzzyyyxxwwwwwwwwwwwwwwwwwwwwwwvvvvvvvvvvvvvvvvvvvvvvvvvvvvvvvvvvuuuvvuuuuuuutttqjcaaaaaa
(PID.TID 0000.0001) //     53 ...........................++++++++++++++zzzyyyxxwwwwwwwwwwwwwwwwwwwwwwvvvvvvvvvvvvvvvvvvvvvvvvvvvvvvuvvvvvvvvuuuuuuuuttqjcaaaaaa
(PID.TID 0000.0001) //     52 ............................+++++++++++++zzzyyyxxxwwwwwwwwwwwwwwwwwwwwwvvvvvvvvvvvvvvvvvvvvvvvvvvvvvvvuvvvvvvvuuuuuuuuttqlcaaaaaa
(PID.TID 0000.0001) //     51 ............................+++++++++++++zzzzyyyxxwwwwwwwwwwwwwwwwwwwwwvvvvvvvvvvvvvvvvvvvvvvvvvvvvvvvuvvvvuvvuuuuuuuuutqlcaaaaaa
(PID.TID 0000.0001) //     50 ............................++++++++++++++zzzyyyxxwwwwwwwwwwwwwwwwwwwwwvvvvvvvvvvvvvvvvvvvvvvvvvvvvvvvuvvvuvvvvuuuuuuuutrkcaaaaab
(PID.TID 0000.0001) //     49 .............................+++++++++++++zzzyyyxxwwwwwwwwwwwwwwwwwwwwwvvvvvvvvvvvvvvvvvvvvvvvvvvvvvvvuvvuuvvvvvuuuuuuutsmeaaaaab
(PID.TID 0000.0001) //     48 .............................+++++++++++++zzzyyyxxwwwwwwwwwwwwwwwwwwwwwvvvvvvvvvvvvvvvvvvvvvvvvvvvvvvvuuuvvuvvvuuuuuuuutsph--aaaa
(PID.TID 0000.0001) //     47 .............................+++++++++++++zzzyyyxxwwwwwwwwwwwwwwwwwwwwvvvvvvvvvvvvvvvvvvvvvvvvvvvvvvvvuvuvuuuvvuuuuuuuuttqlcaaaaa
(PID.TID 0000.0001) //     46 ..........................++++++++++++++++zzzyyyxxwwwwwwwwwwwwwwwwwwwwvvvvvvvvvvvvvvvvvvvvvvvvvvvvvvvuuuuvuuuvuuuuuuuuuttpjdaaaaa
(PID.TID 0000.0001) //     45 ..........................++++++++++++++++zzzyyyxxwwwwwwwwwwwwwwwwwwwwvvvvvvvvvvvvvvvvvvvvvvvvvvvvvvuuuuuvuuuvuuuuuuuuuttricbaaaa
(PID.TID 0000.0001) //     44 ...........................+++++++++++++++zzzzyyyxwwwwwwwwwwwwwwwwwwvvvvvvvvvvvvvvvvvvvvvvvvvvvvvvvvvvuuuuuuvvvuuuuuuuutsrmecaaaa
(PID.TID 0000.0001) //     43 ...........................+++++++++++++++zzzzyyyxxwwwwwwwwwwwwwwwwwvvvvvvvvvvvvvvvvvvvvvvvvvvvvvvvvvvuuuuuuvvvuuuuuuuuurpkfcaaaa
(PID.TID 0000.0001) //     42 ..........................++++++++++++++++zzzzyyyxxwwwwwwwwwwwwwwwwwvvvvvvvvvvvvvvvvvvvvvvvvvvvuvvvvvvuuuuuuuvvuuuuuuuuutrnhcaaaa
(PID.TID 0000.0001) //     41 ..........................+++++++++++++++++zzzyyyxxwwwwwwwwwwwwwwwwwvvvvvvvvvvvvvvvvvvvvvvvvvvvuvvvvuuuuuuuuuvvuuuuuuuuuutqicaaaa
(PID.TID 0000.0001) //     40 ..........................+++++++++++++++++zzzyyyxxwwwwwwwwwwwwwwwwwvvvvvvvvvvvvvvvvvvvvvvvvvvvvvvvuuuuvuuuuuuuvvuuuuuuuutqhb-aaa
(PID.TID 0000.0001) //     39 ...........................++++++++++++++++zzzyyyxxwwwwwwwwwwwwwwwwwvvvvvvvvvvvvvvvvvvvvvvvvvvvvvvvvuuuuuuuuuuuvvvvuuuuuutqibaaaa
(PID.TID 0000.0001) //     38 ............................+++++++++++++++zzzyyyxxwwwwwwwwwwwwwwwwwvvvvvvvvvvvvvvvvvvvvvvvvvvvvuuuuuuuuuuuuuuuuvuuuuuuuutrlcaaaa
(PID.TID 0000.0001) //     37 ............................+++++++++++++++zzzyyyxxwwwwwwwwwwwwwwwwwvvvvvvvvvvvvvvvvvvvvvvvvvvvvuuuuuuuuuuuuuuuuuuuuuuuuutsmdaaaa
(PID.TID 0000.0001) //     36 ............................+++++++++++++++zzzyyyxxwwwwwwwwwwwwwwwwwwvvvvvvvvvvvvvvvvvvvvvvvvvvvuuuuuuuuuuuuuuuuuuuuuuuuuttnfbaaa
(PID.TID 0000.0001) //     35 .............................++++++++++++++zzzyyyxxwwwwwwwwwwwwwwwwwwvvvvvvvvvvvvvvvvvvvvvvuuvvuuvvvuuuuuuuuuuuuuuuuuuuuuttofbaaa
(PID.TID 0000.0001) //     34 .............................++++++++++++++zzzyyyxxwwwwwwwwwwwwwwwwwwvvvvvvvvvvvvvvvvvvvvvuuuvuuuvvvuuuuuuuuuuuuuuuuuuuuuttoeaaaa
(PID.TID 0000.0001) //     33 ..............................+++++++++++++zzzyyyxxwwwwwwwwwwwwwwwwwwwvvvvvvvvvvvvvvvvvvvvuuuvuuuuvvuuuuuuuuuuuuuuuuuuuuuttpeaaaa
(PID.TID 0000.0001) //     32 ..............................+++++++++++++zzzyyyxxwwwwwwxxxxwwwwwwwwwwvvvvvvvvvvvvvvvvvvvuuuvvuuuuuuuuuuuuuuuuuuuuuuuuuttspgbaaa
(PID.TID 0000.0001) //     31 ...............................++++++++++++zzzyyyxxwwwwwwxxxxxxwwwwwwwwvvvvvvvvvvvvvvvvvvvuuuvvuuuuuuuuuuuuuuuuuuuuuuuuutsslebaaa
(PID.TID 0000.0001) //     30 ...............................++++++++++++zzzyyyxxwwwwwwxxxxxxxwwwwwwwwvvvvvvvvvvvvvvvvuuvuvvuuuuuuuuuuuuuuuuuuuuuuuuuuutoecbaab
(PID.TID 0000.0001) //     29 ...............................++++++++++++zzzyyyxxwwwwwxxxxxxxxxwwwwwwwvvvvvvvvvvvvvvvuuuvuuuuuuuuuuuuuuuuuuvuuuttuuuuuttnicaaaa
(PID.TID 0000.0001) //     28 ................................+++++++++++zzzyyyxxwwwwwxxxxxxxxxxwwwwwwwvvvvvvvvvvvvvuuuuuuuuuuuuuuuuuuuuuuvvvuuuuuuuutssnkeaaaa
(PID.TID 0000.0001) //     27 ................................+++++++++++zzzyyyxxwwwwwxxxxxxxxxxxwwwwwwwvvvvvvvvvvvuuuuuuuuuuuuuuttuuuuuuuuvvuuuuuuuutssqmgbaaa
(PID.TID 0000.0001) //     26 .................................++++++++++zzzyyyxxwwwwwxxxxxxxxxxxxxwwwwwvvvvvvvvvvvuuuuuuuuuuuuuttttuuuuuuuvvuuuuuuuuuttsohbaaa
(PID.TID 0000.0001) //     25 .................................++++++++++zzzyyyxxwwwwwxxxxxxxxxxxxxxwwwwwvvvvvvvvvvuuuuuvuuuuuuuttttuuuuuuuuuuuttttuuutttqjba-a
(PID.TID 0000.0001) //     24 .................................++++++++++zzzyyyxxwwwwwxxxxxyyxxxxxxxxwwwwwvvvvvvvvvuuuuuvuuuuuuutsttuuuuuvuuuuuttttuuttttqjda--
(PID.TID 0000.0001) //     23 ..................................+++++++++zzzyyyxxwwwwwxxxxyyyyyxxxxxxxwwwwwvvvvvvvvuuuuuuuuuutuutttttuuuuuuuuuuuuuttutsssoica--
(PID.TID 0000.0001) //     22 ..................................+++++++++zzzyyyxxwwwwwxxxxyyyyyyyyxxxxxxwwwwvvvvvvvvuuuuuuuuttttttttttuuuuuuuuuuuuttttsrqkfbaaa
(PID.TID 0000.0001) //     21 ..................................+++++++++zzzyyyxxwwwwwxxxxyyyyyyyyyyyxxxxwwwwvvvvvvvuuuuuuuuttttttttttuuuuuuuuuuuutttsrpkfcbbaa
(PID.TID 0000.0001) //     20 ...................................++++++++zzzyyyxxwwwwwxxxxyyyyyyyyyyyyxxxxxwwwvvvvvvvuuuuuuuutttttsttttuuuuuuutuuutttsrpjeccbbb
(PID.TID 0000.0001) //     19 ..................................+++++++++zzzyyyxxwwwwwxxxxyyzzyyyyyyyyyyyxxxwwwvvvvvvuuuuuuuutttttsstttuuuuvvuutttttttssqjedccb
(PID.TID 0000.0001) //     18 ..................................+++++++++zzzyyyxxwwwwwxxxxyyzzzzzyyyyyyyyyxxxxwwwvvvvvuuuuuuutttttsssttuuuuuuuutttttttttrogdcbb
(PID.TID 0000.0001) //     17 ...................................++++++++zzzyyyxxwwwwxxxxxyyzzzzzzzzzzzzyyyyxxxwwwvvvvvvuuuuuutttttttttuuuuuuuuutttttttttpiecbb
(PID.TID 0000.0001) //     16 ...................................++++++++zzzyyyxxwwwwwxxxxyy+++++++++++zzzyyyyxxxwwwvvvvuvuuuuuuttttttttuuuuuuuuutuutttttpkgdbb
(PID.TID 0000.0001) //     15 ....................................+++++++zzzyyyxxwwwwwxxxxyz++++++++++++++zzzyyyxxxwwwvvvvvuuvuuuuttttttuuuuuuuutuuutssssrpjecb
(PID.TID 0000.0001) //     14 ....................................+++++++zzzyyyxxwwwwxxxxxyz++++++++++++++++zzzzyyxxxwwwvvvvvvuuuuutttttuuuuutttututtssssrrkecb
(PID.TID 0000.0001) //     13 .....................................++++++zzzyyyxxwwwwwxxxxyz+++++++++++++++++++zzyyyxxxwwwvvvvuuuuutttttuuuuutttttttsrrrrrphcbc
(PID.TID 0000.0001) //     12 .....................................++++++zzzyyyxxwwwwwxxxxyz++++++++++++++++++..+zzzyyxxxwwvvvvvuuuttttttttttttttsrssrrrrqldccc
(PID.TID 0000.0001) //     11 ......................................+++++zzzyyyxxwwwwwxxxxyz++++++++++++++++++...++zzyyyxxxwvvvvvuuttsssttttttssssrrrrrrrmfddcb
(PID.TID 0000.0001) //     10 ......................................+++++zzzyyyxxwwwwwxxxxyzz+++++++++++++++++....+++zzyyyxxwwvvvvuutsrrrstttsrrrrrrrrsspgdcccb
(PID.TID 0000.0001) //      9 .......................................++++zzzyyyxxwwwwwxxxxyzz++++++++++++++++++.....+++zzyyyxxwwwvvuutsrqrrrrrqpqqqqrrrriedccba
(PID.TID 0000.0001) //      8 .......................................++++zzzyyyxxwwwwwxxxxyzz+++++++++++++++++........+++zzzyyxxwwvuuutrrqqqqqqqqpppqpomgfdcbba
(PID.TID 0000.0001) //      7 .......................................++++zzzyyyxxwwwwwxxxxyzz+++++++++++++++++..........++++zzzyyxwvuutssrrrqrsrrpommnoqfedcbba
(PID.TID 0000.0001) //      6 ........................................+++zzzyyyxxwwwwwxxxxxyzz+++++++++++++++...............+++zzyxwvutttttsstussrolhhjjedcbaaa
(PID.TID 0000.0001) //      5 ........................................+++zzzyyyxxxwwwwwxxxxyzzz+++++++++++++...................++zyyxvuuuuttttuuutrnhgedcbbaaaa
(PID.TID 0000.0001) //      4 ........................................+++zzzyyyxxwwwwwwxxxxyyzzz++++++++++........................+zyxwvuttttuuuuutrnmkgecbaaaa
(PID.TID 0000.0001) //      3 ........................................+++zzyyyyxxwwwwwwxxxxxyzzz+++++++++..........................+zyxwuttuuuuvvuuusssomfbbbaa
(PID.TID 0000.0001) //      2 ........................................+++zzyyyyxxwwwwwwxxxxxyzzz++++++++............................+zyxvuuuuuuvvuuutttsqicbbaa
(PID.TID 0000.0001) //      1 .................................................................................................................................
(PID.TID 0000.0001) //      0 .................................................................................................................................
(PID.TID 0000.0001) //     -1 .................................................................................................................................
(PID.TID 0000.0001) //     -2 .................................................................................................................................
(PID.TID 0000.0001) //     -3 .................................................................................................................................
(PID.TID 0000.0001) // =======================================================
(PID.TID 0000.0001) // END OF FIELD                                          =
(PID.TID 0000.0001) // =======================================================
(PID.TID 0000.0001) 
(PID.TID 0000.0001) // =======================================================
(PID.TID 0000.0001) // Field Model Ro_surf (ini_masks_etc)
(PID.TID 0000.0001) // CMIN =          1.000000000000000E+32
(PID.TID 0000.0001) // CMAX =         -1.000000000000000E+32
(PID.TID 0000.0001) // CINT =          0.000000000000000E+00
(PID.TID 0000.0001) // SYMBOLS (CMIN->CMAX): -abcdefghijklmnopqrstuvwxyz+
(PID.TID 0000.0001) //                  0.0: .
(PID.TID 0000.0001) // RANGE I (Lo:Hi:Step):(    -3:   125:     1)
(PID.TID 0000.0001) // RANGE J (Lo:Hi:Step):(    80:    -3:    -1)
(PID.TID 0000.0001) // RANGE K (Lo:Hi:Step):(   1:   1:   1)
(PID.TID 0000.0001) // =======================================================
(PID.TID 0000.0001) // =======================================================
(PID.TID 0000.0001) // END OF FIELD                                          =
(PID.TID 0000.0001) // =======================================================
(PID.TID 0000.0001) 
(PID.TID 0000.0001) // =======================================================
(PID.TID 0000.0001) // Field hFacC at iteration          0
(PID.TID 0000.0001) // CMIN =          1.000000000000000E+00
(PID.TID 0000.0001) // CMAX =          1.000000000000000E+00
(PID.TID 0000.0001) // CINT =          0.000000000000000E+00
(PID.TID 0000.0001) // SYMBOLS (CMIN->CMAX): -abcdefghijklmnopqrstuvwxyz+
(PID.TID 0000.0001) //                  0.0: .
(PID.TID 0000.0001) // RANGE I (Lo:Hi:Step):(    -3:   125:     1)
(PID.TID 0000.0001) // RANGE J (Lo:Hi:Step):(    80:    -3:    -1)
(PID.TID 0000.0001) // RANGE K (Lo:Hi:Step):(   1:   1:   1)
(PID.TID 0000.0001) // =======================================================
(PID.TID 0000.0001) // =======================================================
(PID.TID 0000.0001) // END OF FIELD                                          =
(PID.TID 0000.0001) // =======================================================
(PID.TID 0000.0001) 
(PID.TID 0000.0001) // =======================================================
(PID.TID 0000.0001) // Field hFacW at iteration          0
(PID.TID 0000.0001) // CMIN =          1.000000000000000E+00
(PID.TID 0000.0001) // CMAX =          1.000000000000000E+00
(PID.TID 0000.0001) // CINT =          0.000000000000000E+00
(PID.TID 0000.0001) // SYMBOLS (CMIN->CMAX): -abcdefghijklmnopqrstuvwxyz+
(PID.TID 0000.0001) //                  0.0: .
(PID.TID 0000.0001) // RANGE I (Lo:Hi:Step):(    -3:   125:     1)
(PID.TID 0000.0001) // RANGE J (Lo:Hi:Step):(    80:    -3:    -1)
(PID.TID 0000.0001) // RANGE K (Lo:Hi:Step):(   1:   1:   1)
(PID.TID 0000.0001) // =======================================================
(PID.TID 0000.0001) // =======================================================
(PID.TID 0000.0001) // END OF FIELD                                          =
(PID.TID 0000.0001) // =======================================================
(PID.TID 0000.0001) 
(PID.TID 0000.0001) // =======================================================
(PID.TID 0000.0001) // Field hFacS at iteration          0
(PID.TID 0000.0001) // CMIN =          1.000000000000000E+00
(PID.TID 0000.0001) // CMAX =          1.000000000000000E+00
(PID.TID 0000.0001) // CINT =          0.000000000000000E+00
(PID.TID 0000.0001) // SYMBOLS (CMIN->CMAX): -abcdefghijklmnopqrstuvwxyz+
(PID.TID 0000.0001) //                  0.0: .
(PID.TID 0000.0001) // RANGE I (Lo:Hi:Step):(    -3:   125:     1)
(PID.TID 0000.0001) // RANGE J (Lo:Hi:Step):(    80:    -3:    -1)
(PID.TID 0000.0001) // RANGE K (Lo:Hi:Step):(   1:   1:   1)
(PID.TID 0000.0001) // =======================================================
(PID.TID 0000.0001) // =======================================================
(PID.TID 0000.0001) // END OF FIELD                                          =
(PID.TID 0000.0001) // =======================================================
(PID.TID 0000.0001) 
(PID.TID 0000.0001) 
(PID.TID 0000.0001) // =======================================================
(PID.TID 0000.0001) // Calendar configuration >>> START <<<
(PID.TID 0000.0001) // =======================================================
(PID.TID 0000.0001) 
(PID.TID 0000.0001) modelstart = /* Start time of the model integration [s] */
(PID.TID 0000.0001)                 0.000000000000000E+00
(PID.TID 0000.0001)     ;
(PID.TID 0000.0001) modelend  = /* End time of the model integration [s] */
(PID.TID 0000.0001)                 3.600000000000000E+03
(PID.TID 0000.0001)     ;
(PID.TID 0000.0001) modelStep = /* Time interval for a model forward step [s] */
(PID.TID 0000.0001)                 2.400000000000000E+02
(PID.TID 0000.0001)     ;
(PID.TID 0000.0001) usingGregorianCalendar= /* Calendar Type: Gregorian Calendar */
(PID.TID 0000.0001)                   T
(PID.TID 0000.0001)     ;
(PID.TID 0000.0001) usingJulianCalendar = /* Calendar Type: Julian Calendar */
(PID.TID 0000.0001)                   F
(PID.TID 0000.0001)     ;
(PID.TID 0000.0001) usingNoLeapYearCal  = /* Calendar Type: without Leap Year */
(PID.TID 0000.0001)                   F
(PID.TID 0000.0001)     ;
(PID.TID 0000.0001) usingModelCalendar  = /* Calendar Type: Model Calendar */
(PID.TID 0000.0001)                   F
(PID.TID 0000.0001)     ;
(PID.TID 0000.0001) modelStartDate YYYYMMDD = /* Model start date YYYY-MM-DD */
(PID.TID 0000.0001)                20080101
(PID.TID 0000.0001)     ;
(PID.TID 0000.0001)   modelStartDate HHMMSS = /* Model start date HH-MM-SS  */
(PID.TID 0000.0001)                       0
(PID.TID 0000.0001)     ;
(PID.TID 0000.0001) modelEndDate   YYYYMMDD = /* Model end date YYYY-MM-DD */
(PID.TID 0000.0001)                20080101
(PID.TID 0000.0001)     ;
(PID.TID 0000.0001)   modelEndDate   HHMMSS = /* Model end date HH-MM-SS  */
(PID.TID 0000.0001)                   10000
(PID.TID 0000.0001)     ;
(PID.TID 0000.0001) intyears = /* Number of calendar years affected by the integration */
(PID.TID 0000.0001)                       1
(PID.TID 0000.0001)     ;
(PID.TID 0000.0001) intmonths= /* Number of calendar months affected by the integration */
(PID.TID 0000.0001)                       1
(PID.TID 0000.0001)     ;
(PID.TID 0000.0001) intdays = /* Number of calendar days affected by the integration */
(PID.TID 0000.0001)                       1
(PID.TID 0000.0001)     ;
(PID.TID 0000.0001) modelIter0 = /* Base timestep number  */
(PID.TID 0000.0001)                       0
(PID.TID 0000.0001)     ;
(PID.TID 0000.0001) modelIterEnd = /* Final timestep number  */
(PID.TID 0000.0001)                      15
(PID.TID 0000.0001)     ;
(PID.TID 0000.0001) modelIntSteps= /* Number of model timesteps  */
(PID.TID 0000.0001)                      15
(PID.TID 0000.0001)     ;
(PID.TID 0000.0001) 
(PID.TID 0000.0001) // =======================================================
(PID.TID 0000.0001) // Calendar configuration  >>> END <<<
(PID.TID 0000.0001) // =======================================================
(PID.TID 0000.0001) 
(PID.TID 0000.0001) GAD_INIT_FIXED: GAD_OlMinSize=  4  0  1
(PID.TID 0000.0001) 
(PID.TID 0000.0001) // ===================================
(PID.TID 0000.0001) // GAD parameters :
(PID.TID 0000.0001) // ===================================
(PID.TID 0000.0001) tempAdvScheme =   /* Temp. Horiz.Advection scheme selector */
(PID.TID 0000.0001)                       7
(PID.TID 0000.0001)     ;
(PID.TID 0000.0001) tempVertAdvScheme =   /* Temp. Vert. Advection scheme selector */
(PID.TID 0000.0001)                       7
(PID.TID 0000.0001)     ;
(PID.TID 0000.0001) tempMultiDimAdvec =   /* use Muti-Dim Advec method for Temp */
(PID.TID 0000.0001)                   T
(PID.TID 0000.0001)     ;
(PID.TID 0000.0001) tempSOM_Advection = /* use 2nd Order Moment Advection for Temp */
(PID.TID 0000.0001)                   F
(PID.TID 0000.0001)     ;
(PID.TID 0000.0001) AdamsBashforthGt = /* apply Adams-Bashforth extrapolation on Gt */
(PID.TID 0000.0001)                   F
(PID.TID 0000.0001)     ;
(PID.TID 0000.0001) AdamsBashforth_T = /* apply Adams-Bashforth extrapolation on Temp */
(PID.TID 0000.0001)                   F
(PID.TID 0000.0001)     ;
(PID.TID 0000.0001) saltAdvScheme =   /* Salt. Horiz.advection scheme selector */
(PID.TID 0000.0001)                       7
(PID.TID 0000.0001)     ;
(PID.TID 0000.0001) saltVertAdvScheme =   /* Salt. Vert. Advection scheme selector */
(PID.TID 0000.0001)                       7
(PID.TID 0000.0001)     ;
(PID.TID 0000.0001) saltMultiDimAdvec =   /* use Muti-Dim Advec method for Salt */
(PID.TID 0000.0001)                   T
(PID.TID 0000.0001)     ;
(PID.TID 0000.0001) saltSOM_Advection = /* use 2nd Order Moment Advection for Salt */
(PID.TID 0000.0001)                   F
(PID.TID 0000.0001)     ;
(PID.TID 0000.0001) AdamsBashforthGs = /* apply Adams-Bashforth extrapolation on Gs */
(PID.TID 0000.0001)                   F
(PID.TID 0000.0001)     ;
(PID.TID 0000.0001) AdamsBashforth_S = /* apply Adams-Bashforth extrapolation on Salt */
(PID.TID 0000.0001)                   F
(PID.TID 0000.0001)     ;
(PID.TID 0000.0001) // ===================================
(PID.TID 0000.0001) OBCS_INIT_FIXED: Setting OB indices in Overlap
(PID.TID 0000.0001)  Sets OBS(i,bi,bj=  122,  1,  1)=    2
(PID.TID 0000.0001)  Sets OBS(i,bi,bj=  123,  1,  1)=    2
(PID.TID 0000.0001)  Sets OBS(i,bi,bj=  124,  1,  1)=    2
(PID.TID 0000.0001)  Sets OBS(i,bi,bj=  125,  1,  1)=    2
(PID.TID 0000.0001) OBCS_INIT_FIXED: Setting OB indices in Overlap <= done
(PID.TID 0000.0001) 
(PID.TID 0000.0001) // =======================================================
(PID.TID 0000.0001) // External forcing (EXF) configuration >>> START <<<
(PID.TID 0000.0001) // =======================================================
(PID.TID 0000.0001) 
(PID.TID 0000.0001)  EXF general parameters:
(PID.TID 0000.0001) 
(PID.TID 0000.0001) exf_iprec = /* exf file precision */
(PID.TID 0000.0001)                      32
(PID.TID 0000.0001)     ;
(PID.TID 0000.0001) useExfYearlyFields = /* add extension _YEAR to input file names */
(PID.TID 0000.0001)                   T
(PID.TID 0000.0001)     ;
(PID.TID 0000.0001) twoDigitYear = /* use 2-digit year extension */
(PID.TID 0000.0001)                   F
(PID.TID 0000.0001)     ;
(PID.TID 0000.0001) useExfCheckRange = /* check for fields range */
(PID.TID 0000.0001)                   F
(PID.TID 0000.0001)     ;
(PID.TID 0000.0001) exf_output_interp = /* output directly interpolation result */
(PID.TID 0000.0001)                   F
(PID.TID 0000.0001)     ;
(PID.TID 0000.0001) exf_debugLev = /* select EXF-debug printing level */
(PID.TID 0000.0001)                       2
(PID.TID 0000.0001)     ;
(PID.TID 0000.0001) exf_monFreq  = /* EXF monitor frequency [ s ] */
(PID.TID 0000.0001)                 2.400000000000000E+02
(PID.TID 0000.0001)     ;
(PID.TID 0000.0001) repeatPeriod = /* period for cycling forcing dataset [ s ] */
(PID.TID 0000.0001)                 0.000000000000000E+00
(PID.TID 0000.0001)     ;
(PID.TID 0000.0001) climTempFreeze= /* Minimum climatological temperature [deg.C] */
(PID.TID 0000.0001)                -1.900000000000000E+00
(PID.TID 0000.0001)     ;
(PID.TID 0000.0001) windStressMax = /* Maximum absolute windstress [ Pa ] */
(PID.TID 0000.0001)                 2.000000000000000E+00
(PID.TID 0000.0001)     ;
(PID.TID 0000.0001) stressIsOnCgrid = /* set u,v_stress on Arakawa C-grid */
(PID.TID 0000.0001)                   F
(PID.TID 0000.0001)     ;
(PID.TID 0000.0001) rotateStressOnAgrid = /* rotate u,v_stress on Arakawa A-grid */
(PID.TID 0000.0001)                   F
(PID.TID 0000.0001)     ;
(PID.TID 0000.0001) cen2kel = /* conversion of deg. Centigrade to Kelvin [K] */
(PID.TID 0000.0001)                 2.731500000000000E+02
(PID.TID 0000.0001)     ;
(PID.TID 0000.0001) gravity_mks= /* gravitational acceleration [m/s^2] */
(PID.TID 0000.0001)                 9.810000000000000E+00
(PID.TID 0000.0001)     ;
(PID.TID 0000.0001) atmrho =  /* mean atmospheric density [kg/m^3] */
(PID.TID 0000.0001)                 1.200000000000000E+00
(PID.TID 0000.0001)     ;
(PID.TID 0000.0001) atmcp =  /* mean atmospheric specific heat [J/kg/K] */
(PID.TID 0000.0001)                 1.005000000000000E+03
(PID.TID 0000.0001)     ;
(PID.TID 0000.0001) flamb =  /* latent heat of evaporation [J/kg] */
(PID.TID 0000.0001)                 2.500000000000000E+06
(PID.TID 0000.0001)     ;
(PID.TID 0000.0001) flami =  /* latent heat of pure-ice melting [J/kg] */
(PID.TID 0000.0001)                 3.340000000000000E+05
(PID.TID 0000.0001)     ;
(PID.TID 0000.0001) cvapor_fac = /* const. for Saturation calculation [?] */
(PID.TID 0000.0001)                 6.403800000000000E+05
(PID.TID 0000.0001)     ;
(PID.TID 0000.0001) cvapor_exp = /* const. for Saturation calculation [?] */
(PID.TID 0000.0001)                 5.107400000000000E+03
(PID.TID 0000.0001)     ;
(PID.TID 0000.0001) cvapor_fac_ice= /* const. for Saturation calculation [?] */
(PID.TID 0000.0001)                 1.163780000000000E+07
(PID.TID 0000.0001)     ;
(PID.TID 0000.0001) cvapor_exp_ice= /* const. for Saturation calculation [?] */
(PID.TID 0000.0001)                 5.897800000000000E+03
(PID.TID 0000.0001)     ;
(PID.TID 0000.0001) humid_fac = /* humidity coef. in virtual temp. [(kg/kg)^-1] */
(PID.TID 0000.0001)                 6.060000000000000E-01
(PID.TID 0000.0001)     ;
(PID.TID 0000.0001) gamma_blk = /* adiabatic lapse rate [?] */
(PID.TID 0000.0001)                 1.000000000000000E-02
(PID.TID 0000.0001)     ;
(PID.TID 0000.0001) saltsat = /* reduction of Qsat over salty water [-] */
(PID.TID 0000.0001)                 9.800000000000000E-01
(PID.TID 0000.0001)     ;
(PID.TID 0000.0001) noNegativeEvap = /* prevent negative Evaporation */
(PID.TID 0000.0001)                   F
(PID.TID 0000.0001)     ;
(PID.TID 0000.0001) sstExtrapol = /* extrapolation coeff from lev. 1 & 2 to surf [-] */
(PID.TID 0000.0001)                 0.000000000000000E+00
(PID.TID 0000.0001)     ;
(PID.TID 0000.0001) cDrag_1 = /* coef used in drag calculation [?] */
(PID.TID 0000.0001)                 2.700000000000000E-03
(PID.TID 0000.0001)     ;
(PID.TID 0000.0001) cDrag_2 = /* coef used in drag calculation [?] */
(PID.TID 0000.0001)                 1.420000000000000E-04
(PID.TID 0000.0001)     ;
(PID.TID 0000.0001) cDrag_3 = /* coef used in drag calculation [?] */
(PID.TID 0000.0001)                 7.640000000000000E-05
(PID.TID 0000.0001)     ;
(PID.TID 0000.0001) cStanton_1 = /* coef used in Stanton number calculation [?] */
(PID.TID 0000.0001)                 3.270000000000000E-02
(PID.TID 0000.0001)     ;
(PID.TID 0000.0001) cStanton_2 = /* coef used in Stanton number calculation [?] */
(PID.TID 0000.0001)                 1.800000000000000E-02
(PID.TID 0000.0001)     ;
(PID.TID 0000.0001) cDalton = /* coef used in Dalton number calculation [?] */
(PID.TID 0000.0001)                 3.460000000000000E-02
(PID.TID 0000.0001)     ;
(PID.TID 0000.0001) exf_scal_BulkCdn= /* Drag coefficient scaling factor [-] */
(PID.TID 0000.0001)                 1.000000000000000E+00
(PID.TID 0000.0001)     ;
(PID.TID 0000.0001) zolmin = /* minimum stability parameter [?] */
(PID.TID 0000.0001)                -1.000000000000000E+02
(PID.TID 0000.0001)     ;
(PID.TID 0000.0001) psim_fac = /* coef used in turbulent fluxes calculation [-] */
(PID.TID 0000.0001)                 5.000000000000000E+00
(PID.TID 0000.0001)     ;
(PID.TID 0000.0001) zref =  /* reference height [ m ] */
(PID.TID 0000.0001)                 1.000000000000000E+01
(PID.TID 0000.0001)     ;
(PID.TID 0000.0001) hu =  /* height of mean wind [ m ] */
(PID.TID 0000.0001)                 1.000000000000000E+01
(PID.TID 0000.0001)     ;
(PID.TID 0000.0001) ht =  /* height of mean temperature [ m ] */
(PID.TID 0000.0001)                 2.000000000000000E+00
(PID.TID 0000.0001)     ;
(PID.TID 0000.0001) hq =  /* height of mean spec.humidity [ m ] */
(PID.TID 0000.0001)                 2.000000000000000E+00
(PID.TID 0000.0001)     ;
(PID.TID 0000.0001) uMin = /* minimum wind speed [m/s] */
(PID.TID 0000.0001)                 5.000000000000000E-01
(PID.TID 0000.0001)     ;
(PID.TID 0000.0001) useStabilityFct_overIce= /* transfert Coeffs over sea-ice depend on stability */
(PID.TID 0000.0001)                   F
(PID.TID 0000.0001)     ;
(PID.TID 0000.0001) exf_iceCd = /* drag coefficient over sea-ice (fixed) [-] */
(PID.TID 0000.0001)                 1.630000000000000E-03
(PID.TID 0000.0001)     ;
(PID.TID 0000.0001) exf_iceCe = /* transfert coeff. over sea-ice, for Evap (fixed) [-] */
(PID.TID 0000.0001)                 1.630000000000000E-03
(PID.TID 0000.0001)     ;
(PID.TID 0000.0001) exf_iceCh = /* transfert coeff. over sea-ice, Sens.Heat.(fixed)[-] */
(PID.TID 0000.0001)                 1.630000000000000E-03
(PID.TID 0000.0001)     ;
(PID.TID 0000.0001) exf_albedo =  /* Sea-water albedo [-] */
(PID.TID 0000.0001)                 1.000000000000000E-01
(PID.TID 0000.0001)     ;
(PID.TID 0000.0001) useExfZenAlbedo = /* Sea-water albedo varies with zenith angle */
(PID.TID 0000.0001)                   T
(PID.TID 0000.0001)     ;
(PID.TID 0000.0001) select_ZenAlbedo = /* Sea-water albedo computation method */
(PID.TID 0000.0001)                       1
(PID.TID 0000.0001)     ;
(PID.TID 0000.0001) useExfZenIncoming = /* compute incoming solar radiation */
(PID.TID 0000.0001)                   T
(PID.TID 0000.0001)     ;
(PID.TID 0000.0001) ocean_emissivity = /* longwave ocean-surface emissivity [-] */
(PID.TID 0000.0001)                 9.700000000000000E-01
(PID.TID 0000.0001)     ;
(PID.TID 0000.0001) ice_emissivity = /* longwave seaice emissivity [-] */
(PID.TID 0000.0001)                 9.500000000000000E-01
(PID.TID 0000.0001)     ;
(PID.TID 0000.0001) snow_emissivity = /* longwave snow  emissivity [-] */
(PID.TID 0000.0001)                 9.500000000000000E-01
(PID.TID 0000.0001)     ;
(PID.TID 0000.0001) 
(PID.TID 0000.0001)  EXF main CPP flags:
(PID.TID 0000.0001) 
(PID.TID 0000.0001) // USE_EXF_INTERPOLATION:              defined
(PID.TID 0000.0001) // ALLOW_ATM_TEMP:                     defined
(PID.TID 0000.0001) // ALLOW_ATM_WIND (useAtmWind):        defined
(PID.TID 0000.0001) // ALLOW_DOWNWARD_RADIATION:           defined
(PID.TID 0000.0001) // ALLOW_BULKFORMULAE:                 defined
(PID.TID 0000.0001) 
(PID.TID 0000.0001)    Zonal wind forcing starts at                          0.
(PID.TID 0000.0001)    Zonal wind forcing period is                       3600.
(PID.TID 0000.0001)    Zonal wind forcing repeat-cycle is                    0.
(PID.TID 0000.0001)    Zonal wind forcing is read from file:
(PID.TID 0000.0001)    >> era5/ERA5_u10m <<
(PID.TID 0000.0001)    interpolate "uwind" (method= 12 ):
(PID.TID 0000.0001)    lon0=   0.00000, nlon=  1280, lon_inc= 0.2812500
(PID.TID 0000.0001)    lat0= -89.78489, nlat=   640, inc(min,max)= 0.27868 0.28103
(PID.TID 0000.0001) 
(PID.TID 0000.0001)    Meridional wind forcing starts at                     0.
(PID.TID 0000.0001)    Meridional wind forcing period is                  3600.
(PID.TID 0000.0001)    Meridional wind forcing repeat-cycle is               0.
(PID.TID 0000.0001)    Meridional wind forcing is read from file:
(PID.TID 0000.0001)    >> era5/ERA5_v10m <<
(PID.TID 0000.0001)    interpolate "vwind" (method= 22 ):
(PID.TID 0000.0001)    lon0=   0.00000, nlon=  1280, lon_inc= 0.2812500
(PID.TID 0000.0001)    lat0= -89.78489, nlat=   640, inc(min,max)= 0.27868 0.28103
(PID.TID 0000.0001)     Interp. U & V comp. together: uvInterp_wind =    T
(PID.TID 0000.0001) 
(PID.TID 0000.0001)    Atmospheric temperature starts at                     0.
(PID.TID 0000.0001)    Atmospheric temperature period is                  3600.
(PID.TID 0000.0001)    Atmospheric temperature repeat-cycle is               0.
(PID.TID 0000.0001)    Atmospheric temperature is read from file:
(PID.TID 0000.0001)    >> era5/ERA5_tmp2m_degC <<
(PID.TID 0000.0001)    interpolate "atemp" (method=  1 ):
(PID.TID 0000.0001)    lon0=   0.00000, nlon=  1280, lon_inc= 0.2812500
(PID.TID 0000.0001)    lat0= -89.78489, nlat=   640, inc(min,max)= 0.27868 0.28103
(PID.TID 0000.0001) 
(PID.TID 0000.0001)    Atmospheric specific humidity starts at               0.
(PID.TID 0000.0001)    Atmospheric specific humidity period is            3600.
(PID.TID 0000.0001)    Atmospheric specific humidity rep-cycle is            0.
(PID.TID 0000.0001)    Atmospheric specific humidity is read from file:
(PID.TID 0000.0001)    >> era5/ERA5_spfh2m <<
(PID.TID 0000.0001)    interpolate "aqh" (method=  1 ):
(PID.TID 0000.0001)    lon0=   0.00000, nlon=  1280, lon_inc= 0.2812500
(PID.TID 0000.0001)    lat0= -89.78489, nlat=   640, inc(min,max)= 0.27868 0.28103
(PID.TID 0000.0001) 
(PID.TID 0000.0001) // ALLOW_READ_TURBFLUXES:          NOT defined
(PID.TID 0000.0001) // EXF_READ_EVAP:                  NOT defined
(PID.TID 0000.0001) 
(PID.TID 0000.0001)    Precipitation data starts at                       1800.
(PID.TID 0000.0001)    Precipitation data period is                       3600.
(PID.TID 0000.0001)    Precipitation data repeat-cycle is                    0.
(PID.TID 0000.0001)    Precipitation data is read from file:
(PID.TID 0000.0001)    >> era5/ERA5_rain <<
(PID.TID 0000.0001)    interpolate "precip" (method=  1 ):
(PID.TID 0000.0001)    lon0=   0.00000, nlon=  1280, lon_inc= 0.2812500
(PID.TID 0000.0001)    lat0= -89.78489, nlat=   640, inc(min,max)= 0.27868 0.28103
(PID.TID 0000.0001) 
(PID.TID 0000.0001) // ALLOW_RUNOFF:                       defined
(PID.TID 0000.0001)    Runoff data period is                               -12.
(PID.TID 0000.0001)    Runoff data is read from file:
(PID.TID 0000.0001)    >> runoff1p2472-360x180x12.bin <<
(PID.TID 0000.0001)    interpolate "runoff" (method=  1 ):
(PID.TID 0000.0001)    lon0=   0.50000, nlon=   360, lon_inc= 1.0000000
(PID.TID 0000.0001)    lat0= -89.50000, nlat=   180, lat_inc= 1.0000000
(PID.TID 0000.0001) 
(PID.TID 0000.0001) // ALLOW_RUNOFTEMP:                NOT defined
(PID.TID 0000.0001) // ALLOW_SALTFLX:                      defined
(PID.TID 0000.0001) 
(PID.TID 0000.0001)    Downward shortwave flux starts at                  1800.
(PID.TID 0000.0001)    Downward shortwave flux period is                  3600.
(PID.TID 0000.0001)    Downward shortwave flux repeat-cycle is               0.
(PID.TID 0000.0001)    Downward shortwave flux is read from file:
(PID.TID 0000.0001)    >> era5/ERA5_dsw <<
(PID.TID 0000.0001)    interpolate "swdown" (method=  1 ):
(PID.TID 0000.0001)    lon0=   0.00000, nlon=  1280, lon_inc= 0.2812500
(PID.TID 0000.0001)    lat0= -89.78489, nlat=   640, inc(min,max)= 0.27868 0.28103
(PID.TID 0000.0001) 
(PID.TID 0000.0001)    Downward longwave flux starts at                   1800.
(PID.TID 0000.0001)    Downward longwave flux period is                   3600.
(PID.TID 0000.0001)    Downward longwave flux repeat-cycle is                0.
(PID.TID 0000.0001)    Downward longwave flux is read from file:
(PID.TID 0000.0001)    >> era5/ERA5_dlw <<
(PID.TID 0000.0001)    interpolate "lwdown" (method=  1 ):
(PID.TID 0000.0001)    lon0=   0.00000, nlon=  1280, lon_inc= 0.2812500
(PID.TID 0000.0001)    lat0= -89.78489, nlat=   640, inc(min,max)= 0.27868 0.28103
(PID.TID 0000.0001) 
(PID.TID 0000.0001)    Atmospheric pressure forcing starts at                0.
(PID.TID 0000.0001)    Atmospheric pressure forcing period is             3600.
(PID.TID 0000.0001)    Atmospheric pressure forcing rep-cycle is             0.
(PID.TID 0000.0001)    Atmospheric pressure forcing is read from file:
(PID.TID 0000.0001)    >> era5/ERA5_pres <<
(PID.TID 0000.0001)    interpolate "apressure" (method=  1 ):
(PID.TID 0000.0001)    lon0=   0.00000, nlon=  1280, lon_inc= 0.2812500
(PID.TID 0000.0001)    lat0= -89.78489, nlat=   640, inc(min,max)= 0.27868 0.28103
(PID.TID 0000.0001) 
(PID.TID 0000.0001)    Tidal geopotential starts at                          0.
(PID.TID 0000.0001)    Tidal geopotential period is                       3600.
(PID.TID 0000.0001)    Tidal geopotential repeat-cycle is                    0.
(PID.TID 0000.0001)    Tidal geopotential is read from file:
(PID.TID 0000.0001)    >> tide_IAU_EARTH <<
(PID.TID 0000.0001)    interpolate "tidePot" (method=  1 ):
(PID.TID 0000.0001)    lon0=   0.00000, nlon=   360, lon_inc= 1.0000000
(PID.TID 0000.0001)    lat0= -90.00000, nlat=   181, lat_inc= 1.0000000
(PID.TID 0000.0001) 
(PID.TID 0000.0001) // =======================================================
(PID.TID 0000.0001) // External forcing (EXF) climatology configuration :
(PID.TID 0000.0001) // =======================================================
(PID.TID 0000.0001) 
(PID.TID 0000.0001) // ALLOW_CLIMSST_RELAXATION:       NOT defined
(PID.TID 0000.0001) 
(PID.TID 0000.0001) // ALLOW_CLIMSSS_RELAXATION:       NOT defined
(PID.TID 0000.0001) 
(PID.TID 0000.0001) // =======================================================
(PID.TID 0000.0001) // External forcing (EXF) configuration  >>> END <<<
(PID.TID 0000.0001) // =======================================================
(PID.TID 0000.0001) 
(PID.TID 0000.0001) ------------------------------------------------------------
(PID.TID 0000.0001) DIAGNOSTICS_SET_LEVELS: done
(PID.TID 0000.0001)  Total Nb of available Diagnostics: ndiagt=   213
(PID.TID 0000.0001)  write list of available Diagnostics to file: available_diagnostics.log
(PID.TID 0000.0001) SETDIAG: Allocate  1 x  1 Levels for Diagnostic #    23 ETAN
(PID.TID 0000.0001) SETDIAG: Allocate  1 x  1 Levels for Diagnostic #    80 oceTAUX
(PID.TID 0000.0001) SETDIAG: Allocate  1 x  1 Levels for Diagnostic #    81 oceTAUY
(PID.TID 0000.0001) SETDIAG: Allocate  1 x  1 Levels for Diagnostic #   185 EXFuwind
(PID.TID 0000.0001) SETDIAG: Allocate  1 x  1 Levels for Diagnostic #   186 EXFvwind
(PID.TID 0000.0001) SETDIAG: Allocate100 x  1 Levels for Diagnostic #    26 THETA
(PID.TID 0000.0001) SETDIAG: Allocate100 x  1 Levels for Diagnostic #    27 SALT
(PID.TID 0000.0001) SETDIAG: Allocate100 x  1 Levels for Diagnostic #    30 UVEL
(PID.TID 0000.0001) SETDIAG: Allocate100 x  1 Levels for Diagnostic #    31 VVEL
(PID.TID 0000.0001) SETDIAG: Allocate100 x  1 Levels for Diagnostic #    32 WVEL
(PID.TID 0000.0001) SETDIAG: Allocate100 x  1 Levels for Diagnostic #    36 UVELSQ
(PID.TID 0000.0001) SETDIAG: Allocate100 x  1 Levels for Diagnostic #    37 VVELSQ
(PID.TID 0000.0001) SETDIAG: Allocate100 x  1 Levels for Diagnostic #    52 WTHMASS
(PID.TID 0000.0001) SETDIAG: Allocate100 x  1 Levels for Diagnostic #    55 WSLTMASS
(PID.TID 0000.0001)   space allocated for all diagnostics:     905 levels
(PID.TID 0000.0001)   set mate pointer for diag #    80  oceTAUX  , Parms: UU      U1 , mate:    81
(PID.TID 0000.0001)   set mate pointer for diag #    81  oceTAUY  , Parms: VV      U1 , mate:    80
(PID.TID 0000.0001)   set mate pointer for diag #    30  UVEL     , Parms: UUR     MR , mate:    31
(PID.TID 0000.0001)   set mate pointer for diag #    31  VVEL     , Parms: VVR     MR , mate:    30
(PID.TID 0000.0001)   set mate pointer for diag #    36  UVELSQ   , Parms: UURP    MR , mate:    37
(PID.TID 0000.0001)   set mate pointer for diag #    37  VVELSQ   , Parms: VVRP    MR , mate:    36
(PID.TID 0000.0001) DIAGNOSTICS_SET_POINTERS: Set levels for Outp.Stream: diags/surface
(PID.TID 0000.0001)  Levels:       1.
(PID.TID 0000.0001) DIAGNOSTICS_SET_POINTERS: Set levels for Outp.Stream: diags/interior
(PID.TID 0000.0001)  Levels:       1.   2.   3.   4.   5.   6.   7.   8.   9.  10.  11.  12.  13.  14.  15.  16.  17.  18.  19.  20.
(PID.TID 0000.0001)  Levels:      21.  22.  23.  24.  25.  26.  27.  28.  29.  30.  31.  32.  33.  34.  35.  36.  37.  38.  39.  40.
(PID.TID 0000.0001)  Levels:      41.  42.  43.  44.  45.  46.  47.  48.  49.  50.  51.  52.  53.  54.  55.  56.  57.  58.  59.  60.
(PID.TID 0000.0001)  Levels:      61.  62.  63.  64.  65.  66.  67.  68.  69.  70.  71.  72.  73.  74.  75.  76.  77.  78.  79.  80.
(PID.TID 0000.0001)  Levels:      81.  82.  83.  84.  85.  86.  87.  88.  89.  90.  91.  92.  93.  94.  95.  96.  97.  98.  99. 100.
(PID.TID 0000.0001) DIAGNOSTICS_SET_POINTERS: done
(PID.TID 0000.0001) ------------------------------------------------------------
(PID.TID 0000.0001) DIAGSTATS_SET_REGIONS: define no region
(PID.TID 0000.0001) ------------------------------------------------------------
(PID.TID 0000.0001)   space allocated for all stats-diags:       0 levels
(PID.TID 0000.0001) DIAGSTATS_SET_POINTERS: done
(PID.TID 0000.0001) ------------------------------------------------------------
(PID.TID 0000.0001) %MON fCori_max                    =   1.0031064840358E-04
(PID.TID 0000.0001) %MON fCori_min                    =   6.5921486603128E-05
(PID.TID 0000.0001) %MON fCori_mean                   =   8.4255144116694E-05
(PID.TID 0000.0001) %MON fCori_sd                     =   9.9582465649504E-06
(PID.TID 0000.0001) %MON fCoriG_max                   =   1.0028465045639E-04
(PID.TID 0000.0001) %MON fCoriG_min                   =   6.5882690911173E-05
(PID.TID 0000.0001) %MON fCoriG_mean                  =   8.4222759487632E-05
(PID.TID 0000.0001) %MON fCoriG_sd                    =   9.9619713195683E-06
(PID.TID 0000.0001) %MON fCoriCos_max                 =   1.3009374988389E-04
(PID.TID 0000.0001) %MON fCoriCos_min                 =   1.0586689743103E-04
(PID.TID 0000.0001) %MON fCoriCos_mean                =   1.1841545558296E-04
(PID.TID 0000.0001) %MON fCoriCos_sd                  =   7.0505353786224E-06
(PID.TID 0000.0001) INI_CG2D: CG2D normalisation factor =  1.4987118910715993E-04
(PID.TID 0000.0001) INI_CG2D: cg2dTolerance = 7.057349561527466E-12 (Area=1.1301464310E+13)
(PID.TID 0000.0001) 
(PID.TID 0000.0001) // =======================================================
(PID.TID 0000.0001) // Model configuration
(PID.TID 0000.0001) // =======================================================
(PID.TID 0000.0001) //
(PID.TID 0000.0001) // "Physical" paramters ( PARM01 in namelist )
(PID.TID 0000.0001) //
(PID.TID 0000.0001) buoyancyRelation = /* Type of relation to get Buoyancy */
(PID.TID 0000.0001)               'OCEANIC'
(PID.TID 0000.0001)     ;
(PID.TID 0000.0001) fluidIsAir   =  /* fluid major constituent is Air */
(PID.TID 0000.0001)                   F
(PID.TID 0000.0001)     ;
(PID.TID 0000.0001) fluidIsWater =  /* fluid major constituent is Water */
(PID.TID 0000.0001)                   T
(PID.TID 0000.0001)     ;
(PID.TID 0000.0001) usingPCoords =  /* use p (or p*) vertical coordinate */
(PID.TID 0000.0001)                   F
(PID.TID 0000.0001)     ;
(PID.TID 0000.0001) usingZCoords =  /* use z (or z*) vertical coordinate */
(PID.TID 0000.0001)                   T
(PID.TID 0000.0001)     ;
(PID.TID 0000.0001) tRef =   /* Reference temperature profile ( oC or K ) */
(PID.TID 0000.0001)     5 @  1.889000000000000E+01,             /* K =  1:  5 */
(PID.TID 0000.0001)                 1.887000000000000E+01,      /* K =  6 */
(PID.TID 0000.0001)                 1.885000000000000E+01,      /* K =  7 */
(PID.TID 0000.0001)                 1.882000000000000E+01,      /* K =  8 */
(PID.TID 0000.0001)                 1.880000000000000E+01,      /* K =  9 */
(PID.TID 0000.0001)                 1.873000000000000E+01,      /* K = 10 */
(PID.TID 0000.0001)                 1.863000000000000E+01,      /* K = 11 */
(PID.TID 0000.0001)                 1.849000000000000E+01,      /* K = 12 */
(PID.TID 0000.0001)                 1.828000000000000E+01,      /* K = 13 */
(PID.TID 0000.0001)                 1.808000000000000E+01,      /* K = 14 */
(PID.TID 0000.0001)                 1.786000000000000E+01,      /* K = 15 */
(PID.TID 0000.0001)                 1.763000000000000E+01,      /* K = 16 */
(PID.TID 0000.0001)                 1.740000000000000E+01,      /* K = 17 */
(PID.TID 0000.0001)                 1.718000000000000E+01,      /* K = 18 */
(PID.TID 0000.0001)                 1.695000000000000E+01,      /* K = 19 */
(PID.TID 0000.0001)                 1.673000000000000E+01,      /* K = 20 */
(PID.TID 0000.0001)                 1.652000000000000E+01,      /* K = 21 */
(PID.TID 0000.0001)                 1.631000000000000E+01,      /* K = 22 */
(PID.TID 0000.0001)                 1.610000000000000E+01,      /* K = 23 */
(PID.TID 0000.0001)                 1.589000000000000E+01,      /* K = 24 */
(PID.TID 0000.0001)                 1.569000000000000E+01,      /* K = 25 */
(PID.TID 0000.0001)                 1.549000000000000E+01,      /* K = 26 */
(PID.TID 0000.0001)                 1.528000000000000E+01,      /* K = 27 */
(PID.TID 0000.0001)                 1.508000000000000E+01,      /* K = 28 */
(PID.TID 0000.0001)                 1.488000000000000E+01,      /* K = 29 */
(PID.TID 0000.0001)                 1.467000000000000E+01,      /* K = 30 */
(PID.TID 0000.0001)                 1.447000000000000E+01,      /* K = 31 */
(PID.TID 0000.0001)                 1.425000000000000E+01,      /* K = 32 */
(PID.TID 0000.0001)                 1.403000000000000E+01,      /* K = 33 */
(PID.TID 0000.0001)                 1.380000000000000E+01,      /* K = 34 */
(PID.TID 0000.0001)                 1.355000000000000E+01,      /* K = 35 */
(PID.TID 0000.0001)                 1.329000000000000E+01,      /* K = 36 */
(PID.TID 0000.0001)                 1.301000000000000E+01,      /* K = 37 */
(PID.TID 0000.0001)                 1.273000000000000E+01,      /* K = 38 */
(PID.TID 0000.0001)                 1.242000000000000E+01,      /* K = 39 */
(PID.TID 0000.0001)                 1.211000000000000E+01,      /* K = 40 */
(PID.TID 0000.0001)                 1.178000000000000E+01,      /* K = 41 */
(PID.TID 0000.0001)                 1.143000000000000E+01,      /* K = 42 */
(PID.TID 0000.0001)                 1.107000000000000E+01,      /* K = 43 */
(PID.TID 0000.0001)                 1.070000000000000E+01,      /* K = 44 */
(PID.TID 0000.0001)                 1.031000000000000E+01,      /* K = 45 */
(PID.TID 0000.0001)                 9.930000000000000E+00,      /* K = 46 */
(PID.TID 0000.0001)                 9.529999999999999E+00,      /* K = 47 */
(PID.TID 0000.0001)                 9.109999999999999E+00,      /* K = 48 */
(PID.TID 0000.0001)                 8.710000000000001E+00,      /* K = 49 */
(PID.TID 0000.0001)                 8.289999999999999E+00,      /* K = 50 */
(PID.TID 0000.0001)                 7.890000000000000E+00,      /* K = 51 */
(PID.TID 0000.0001)                 7.510000000000000E+00,      /* K = 52 */
(PID.TID 0000.0001)                 7.130000000000000E+00,      /* K = 53 */
(PID.TID 0000.0001)                 6.780000000000000E+00,      /* K = 54 */
(PID.TID 0000.0001)                 6.440000000000000E+00,      /* K = 55 */
(PID.TID 0000.0001)                 6.110000000000000E+00,      /* K = 56 */
(PID.TID 0000.0001)                 5.810000000000000E+00,      /* K = 57 */
(PID.TID 0000.0001)                 5.510000000000000E+00,      /* K = 58 */
(PID.TID 0000.0001)                 5.230000000000000E+00,      /* K = 59 */
(PID.TID 0000.0001)                 4.970000000000000E+00,      /* K = 60 */
(PID.TID 0000.0001)                 4.730000000000000E+00,      /* K = 61 */
(PID.TID 0000.0001)                 4.510000000000000E+00,      /* K = 62 */
(PID.TID 0000.0001)                 4.300000000000000E+00,      /* K = 63 */
(PID.TID 0000.0001)                 4.110000000000000E+00,      /* K = 64 */
(PID.TID 0000.0001)                 3.940000000000000E+00,      /* K = 65 */
(PID.TID 0000.0001)                 3.780000000000000E+00,      /* K = 66 */
(PID.TID 0000.0001)                 3.630000000000000E+00,      /* K = 67 */
(PID.TID 0000.0001)                 3.500000000000000E+00,      /* K = 68 */
(PID.TID 0000.0001)                 3.380000000000000E+00,      /* K = 69 */
(PID.TID 0000.0001)                 3.250000000000000E+00,      /* K = 70 */
(PID.TID 0000.0001)                 3.140000000000000E+00,      /* K = 71 */
(PID.TID 0000.0001)                 3.040000000000000E+00,      /* K = 72 */
(PID.TID 0000.0001)                 2.940000000000000E+00,      /* K = 73 */
(PID.TID 0000.0001)                 2.830000000000000E+00,      /* K = 74 */
(PID.TID 0000.0001)                 2.740000000000000E+00,      /* K = 75 */
(PID.TID 0000.0001)                 2.640000000000000E+00,      /* K = 76 */
(PID.TID 0000.0001)                 2.540000000000000E+00,      /* K = 77 */
(PID.TID 0000.0001)                 2.450000000000000E+00,      /* K = 78 */
(PID.TID 0000.0001)                 2.360000000000000E+00,      /* K = 79 */
(PID.TID 0000.0001)                 2.270000000000000E+00,      /* K = 80 */
(PID.TID 0000.0001)                 2.190000000000000E+00,      /* K = 81 */
(PID.TID 0000.0001)                 2.100000000000000E+00,      /* K = 82 */
(PID.TID 0000.0001)                 2.030000000000000E+00,      /* K = 83 */
(PID.TID 0000.0001)                 1.950000000000000E+00,      /* K = 84 */
(PID.TID 0000.0001)                 1.860000000000000E+00,      /* K = 85 */
(PID.TID 0000.0001)                 1.780000000000000E+00,      /* K = 86 */
(PID.TID 0000.0001)                 1.700000000000000E+00,      /* K = 87 */
(PID.TID 0000.0001)                 1.630000000000000E+00,      /* K = 88 */
(PID.TID 0000.0001)                 1.550000000000000E+00,      /* K = 89 */
(PID.TID 0000.0001)                 1.480000000000000E+00,      /* K = 90 */
(PID.TID 0000.0001)                 1.410000000000000E+00,      /* K = 91 */
(PID.TID 0000.0001)                 1.340000000000000E+00,      /* K = 92 */
(PID.TID 0000.0001)                 1.270000000000000E+00,      /* K = 93 */
(PID.TID 0000.0001)                 1.200000000000000E+00,      /* K = 94 */
(PID.TID 0000.0001)                 1.130000000000000E+00,      /* K = 95 */
(PID.TID 0000.0001)                 1.060000000000000E+00,      /* K = 96 */
(PID.TID 0000.0001)                 1.000000000000000E+00,      /* K = 97 */
(PID.TID 0000.0001)                 9.600000000000000E-01,      /* K = 98 */
(PID.TID 0000.0001)                 9.300000000000000E-01,      /* K = 99 */
(PID.TID 0000.0001)                 9.100000000000000E-01       /* K =100 */
(PID.TID 0000.0001)     ;
(PID.TID 0000.0001) sRef =   /* Reference salinity profile ( psu ) */
(PID.TID 0000.0001)     6 @  3.484000000000000E+01,             /* K =  1:  6 */
(PID.TID 0000.0001)     3 @  3.485000000000000E+01,             /* K =  7:  9 */
(PID.TID 0000.0001)                 3.486000000000000E+01,      /* K = 10 */
(PID.TID 0000.0001)                 3.487000000000000E+01,      /* K = 11 */
(PID.TID 0000.0001)                 3.488000000000000E+01,      /* K = 12 */
(PID.TID 0000.0001)                 3.490000000000000E+01,      /* K = 13 */
(PID.TID 0000.0001)                 3.491000000000000E+01,      /* K = 14 */
(PID.TID 0000.0001)                 3.493000000000000E+01,      /* K = 15 */
(PID.TID 0000.0001)                 3.495000000000000E+01,      /* K = 16 */
(PID.TID 0000.0001)                 3.496000000000000E+01,      /* K = 17 */
(PID.TID 0000.0001)                 3.498000000000000E+01,      /* K = 18 */
(PID.TID 0000.0001)                 3.499000000000000E+01,      /* K = 19 */
(PID.TID 0000.0001)                 3.500000000000000E+01,      /* K = 20 */
(PID.TID 0000.0001)                 3.501000000000000E+01,      /* K = 21 */
(PID.TID 0000.0001)                 3.502000000000000E+01,      /* K = 22 */
(PID.TID 0000.0001)                 3.503000000000000E+01,      /* K = 23 */
(PID.TID 0000.0001)                 3.504000000000000E+01,      /* K = 24 */
(PID.TID 0000.0001)                 3.505000000000000E+01,      /* K = 25 */
(PID.TID 0000.0001)                 3.506000000000000E+01,      /* K = 26 */
(PID.TID 0000.0001)     7 @  3.507000000000000E+01,             /* K = 27: 33 */
(PID.TID 0000.0001)                 3.506000000000000E+01,      /* K = 34 */
(PID.TID 0000.0001)                 3.505000000000000E+01,      /* K = 35 */
(PID.TID 0000.0001)                 3.504000000000000E+01,      /* K = 36 */
(PID.TID 0000.0001)                 3.503000000000000E+01,      /* K = 37 */
(PID.TID 0000.0001)                 3.502000000000000E+01,      /* K = 38 */
(PID.TID 0000.0001)                 3.501000000000000E+01,      /* K = 39 */
(PID.TID 0000.0001)                 3.499000000000000E+01,      /* K = 40 */
(PID.TID 0000.0001)                 3.497000000000000E+01,      /* K = 41 */
(PID.TID 0000.0001)                 3.495000000000000E+01,      /* K = 42 */
(PID.TID 0000.0001)                 3.492000000000000E+01,      /* K = 43 */
(PID.TID 0000.0001)                 3.490000000000000E+01,      /* K = 44 */
(PID.TID 0000.0001)                 3.487000000000000E+01,      /* K = 45 */
(PID.TID 0000.0001)                 3.484000000000000E+01,      /* K = 46 */
(PID.TID 0000.0001)                 3.481000000000000E+01,      /* K = 47 */
(PID.TID 0000.0001)                 3.478000000000000E+01,      /* K = 48 */
(PID.TID 0000.0001)                 3.475000000000000E+01,      /* K = 49 */
(PID.TID 0000.0001)                 3.472000000000000E+01,      /* K = 50 */
(PID.TID 0000.0001)                 3.469000000000000E+01,      /* K = 51 */
(PID.TID 0000.0001)                 3.467000000000000E+01,      /* K = 52 */
(PID.TID 0000.0001)                 3.465000000000000E+01,      /* K = 53 */
(PID.TID 0000.0001)                 3.462000000000000E+01,      /* K = 54 */
(PID.TID 0000.0001)                 3.461000000000000E+01,      /* K = 55 */
(PID.TID 0000.0001)                 3.460000000000000E+01,      /* K = 56 */
(PID.TID 0000.0001)     2 @  3.459000000000000E+01,             /* K = 57: 58 */
(PID.TID 0000.0001)                 3.458000000000000E+01,      /* K = 59 */
(PID.TID 0000.0001)     2 @  3.459000000000000E+01,             /* K = 60: 61 */
(PID.TID 0000.0001)     2 @  3.460000000000000E+01,             /* K = 62: 63 */
(PID.TID 0000.0001)                 3.461000000000000E+01,      /* K = 64 */
(PID.TID 0000.0001)                 3.462000000000000E+01,      /* K = 65 */
(PID.TID 0000.0001)                 3.463000000000000E+01,      /* K = 66 */
(PID.TID 0000.0001)                 3.464000000000000E+01,      /* K = 67 */
(PID.TID 0000.0001)                 3.465000000000000E+01,      /* K = 68 */
(PID.TID 0000.0001)                 3.466000000000000E+01,      /* K = 69 */
(PID.TID 0000.0001)     2 @  3.467000000000000E+01,             /* K = 70: 71 */
(PID.TID 0000.0001)                 3.468000000000000E+01,      /* K = 72 */
(PID.TID 0000.0001)                 3.469000000000000E+01,      /* K = 73 */
(PID.TID 0000.0001)                 3.470000000000000E+01,      /* K = 74 */
(PID.TID 0000.0001)     2 @  3.471000000000000E+01,             /* K = 75: 76 */
(PID.TID 0000.0001)     2 @  3.472000000000000E+01,             /* K = 77: 78 */
(PID.TID 0000.0001)     3 @  3.473000000000000E+01,             /* K = 79: 81 */
(PID.TID 0000.0001)     4 @  3.474000000000000E+01,             /* K = 82: 85 */
(PID.TID 0000.0001)                 3.475000000000000E+01,      /* K = 86 */
(PID.TID 0000.0001)     8 @  3.474000000000000E+01,             /* K = 87: 94 */
(PID.TID 0000.0001)     6 @  3.473000000000000E+01              /* K = 95:100 */
(PID.TID 0000.0001)     ;
(PID.TID 0000.0001) useStrainTensionVisc= /* Use StrainTension Form of Viscous Operator */
(PID.TID 0000.0001)                   F
(PID.TID 0000.0001)     ;
(PID.TID 0000.0001) useVariableVisc = /* Use variable horizontal viscosity */
(PID.TID 0000.0001)                   T
(PID.TID 0000.0001)     ;
(PID.TID 0000.0001) useHarmonicVisc = /* Use harmonic horizontal viscosity */
(PID.TID 0000.0001)                   F
(PID.TID 0000.0001)     ;
(PID.TID 0000.0001) useBiharmonicVisc= /* Use biharmonic horiz.  viscosity */
(PID.TID 0000.0001)                   T
(PID.TID 0000.0001)     ;
(PID.TID 0000.0001) useSmag3D = /* Use isotropic 3-D Smagorinsky viscosity */
(PID.TID 0000.0001)                   F
(PID.TID 0000.0001)     ;
(PID.TID 0000.0001) viscAh  =   /* Lateral harmonic viscosity ( m^2/s ) */
(PID.TID 0000.0001)                 0.000000000000000E+00
(PID.TID 0000.0001)     ;
(PID.TID 0000.0001) viscAhMax = /* Maximum lateral harmonic viscosity ( m^2/s ) */
(PID.TID 0000.0001)                 1.000000000000000E+21
(PID.TID 0000.0001)     ;
(PID.TID 0000.0001) viscAhGrid = /* Grid dependent lateral harmonic viscosity ( non-dim. ) */
(PID.TID 0000.0001)                 0.000000000000000E+00
(PID.TID 0000.0001)     ;
(PID.TID 0000.0001) useFullLeith = /* Use Full Form of Leith Viscosity on/off flag*/
(PID.TID 0000.0001)                   F
(PID.TID 0000.0001)     ;
(PID.TID 0000.0001) useAreaViscLength = /* Use area for visc length instead of geom. mean*/
(PID.TID 0000.0001)                   T
(PID.TID 0000.0001)     ;
(PID.TID 0000.0001) viscC2leith = /* Leith harmonic visc. factor (on grad(vort),non-dim.) */
(PID.TID 0000.0001)                 0.000000000000000E+00
(PID.TID 0000.0001)     ;
(PID.TID 0000.0001) viscC2leithD = /* Leith harmonic viscosity factor (on grad(div),non-dim.)*/
(PID.TID 0000.0001)                 0.000000000000000E+00
(PID.TID 0000.0001)     ;
(PID.TID 0000.0001) viscC2smag = /* Smagorinsky harmonic viscosity factor (non-dim.) */
(PID.TID 0000.0001)                 0.000000000000000E+00
(PID.TID 0000.0001)     ;
(PID.TID 0000.0001) viscA4  =   /* Lateral biharmonic viscosity ( m^4/s ) */
(PID.TID 0000.0001)                 0.000000000000000E+00
(PID.TID 0000.0001)     ;
(PID.TID 0000.0001) viscA4Max = /* Maximum biharmonic viscosity ( m^2/s ) */
(PID.TID 0000.0001)                 1.000000000000000E+21
(PID.TID 0000.0001)     ;
(PID.TID 0000.0001) viscA4Grid = /* Grid dependent biharmonic viscosity ( non-dim. ) */
(PID.TID 0000.0001)                 0.000000000000000E+00
(PID.TID 0000.0001)     ;
(PID.TID 0000.0001) viscC4leith = /* Leith biharm viscosity factor (on grad(vort), non-dim.)*/
(PID.TID 0000.0001)                 2.000000000000000E+00
(PID.TID 0000.0001)     ;
(PID.TID 0000.0001) viscC4leithD = /* Leith biharm viscosity factor (on grad(div), non-dim.) */
(PID.TID 0000.0001)                 2.000000000000000E+00
(PID.TID 0000.0001)     ;
(PID.TID 0000.0001) viscC4Smag = /* Smagorinsky biharm viscosity factor (non-dim) */
(PID.TID 0000.0001)                 0.000000000000000E+00
(PID.TID 0000.0001)     ;
(PID.TID 0000.0001) no_slip_sides =  /* Viscous BCs: No-slip sides */
(PID.TID 0000.0001)                   T
(PID.TID 0000.0001)     ;
(PID.TID 0000.0001) sideDragFactor = /* side-drag scaling factor (non-dim) */
(PID.TID 0000.0001)                 2.000000000000000E+00
(PID.TID 0000.0001)     ;
(PID.TID 0000.0001) viscArNr = /* vertical profile of vertical viscosity ( m^2/s )*/
(PID.TID 0000.0001)   100 @  5.000000000000000E-04              /* K =  1:100 */
(PID.TID 0000.0001)     ;
(PID.TID 0000.0001) no_slip_bottom =  /* Viscous BCs: No-slip bottom */
(PID.TID 0000.0001)                   T
(PID.TID 0000.0001)     ;
(PID.TID 0000.0001) bottomVisc_pCell = /* Partial-cell in bottom Visc. BC */
(PID.TID 0000.0001)                   F
(PID.TID 0000.0001)     ;
(PID.TID 0000.0001) bottomDragLinear = /* linear bottom-drag coefficient ( m/s ) */
(PID.TID 0000.0001)                 0.000000000000000E+00
(PID.TID 0000.0001)     ;
(PID.TID 0000.0001) bottomDragQuadratic = /* quadratic bottom-drag coefficient (-) */
(PID.TID 0000.0001)                 2.000000000000000E-03
(PID.TID 0000.0001)     ;
(PID.TID 0000.0001) selectBotDragQuadr = /* select quadratic bottom drag options */
(PID.TID 0000.0001)                       0
(PID.TID 0000.0001)     ;
(PID.TID 0000.0001) diffKhT =   /* Laplacian diffusion of heat laterally ( m^2/s ) */
(PID.TID 0000.0001)                 0.000000000000000E+00
(PID.TID 0000.0001)     ;
(PID.TID 0000.0001) diffK4T =   /* Biharmonic diffusion of heat laterally ( m^4/s ) */
(PID.TID 0000.0001)                 0.000000000000000E+00
(PID.TID 0000.0001)     ;
(PID.TID 0000.0001) diffKhS =   /* Laplacian diffusion of salt laterally ( m^2/s ) */
(PID.TID 0000.0001)                 0.000000000000000E+00
(PID.TID 0000.0001)     ;
(PID.TID 0000.0001) diffK4S =   /* Biharmonic diffusion of salt laterally ( m^4/s ) */
(PID.TID 0000.0001)                 0.000000000000000E+00
(PID.TID 0000.0001)     ;
(PID.TID 0000.0001) diffKrNrT = /* vertical profile of vertical diffusion of Temp ( m^2/s )*/
(PID.TID 0000.0001)   100 @  1.000000000000000E-05              /* K =  1:100 */
(PID.TID 0000.0001)     ;
(PID.TID 0000.0001) diffKrNrS = /* vertical profile of vertical diffusion of Salt ( m^2/s )*/
(PID.TID 0000.0001)   100 @  1.000000000000000E-05              /* K =  1:100 */
(PID.TID 0000.0001)     ;
(PID.TID 0000.0001) diffKrBL79surf = /* Surface diffusion for Bryan and Lewis 79 ( m^2/s ) */
(PID.TID 0000.0001)                 0.000000000000000E+00
(PID.TID 0000.0001)     ;
(PID.TID 0000.0001) diffKrBL79deep = /* Deep diffusion for Bryan and Lewis 1979 ( m^2/s ) */
(PID.TID 0000.0001)                 0.000000000000000E+00
(PID.TID 0000.0001)     ;
(PID.TID 0000.0001) diffKrBL79scl = /* Depth scale for Bryan and Lewis 1979 ( m ) */
(PID.TID 0000.0001)                 2.000000000000000E+02
(PID.TID 0000.0001)     ;
(PID.TID 0000.0001) diffKrBL79Ho = /* Turning depth for Bryan and Lewis 1979 ( m ) */
(PID.TID 0000.0001)                -2.000000000000000E+03
(PID.TID 0000.0001)     ;
(PID.TID 0000.0001) ivdc_kappa = /* Implicit Vertical Diffusivity for Convection ( m^2/s) */
(PID.TID 0000.0001)                 0.000000000000000E+00
(PID.TID 0000.0001)     ;
(PID.TID 0000.0001) hMixCriteria=  /* Criteria for mixed-layer diagnostic */
(PID.TID 0000.0001)                -8.000000000000000E-01
(PID.TID 0000.0001)     ;
(PID.TID 0000.0001) dRhoSmall =  /* Parameter for mixed-layer diagnostic */
(PID.TID 0000.0001)                 1.000000000000000E-06
(PID.TID 0000.0001)     ;
(PID.TID 0000.0001) hMixSmooth=  /* Smoothing parameter for mixed-layer diagnostic */
(PID.TID 0000.0001)                 0.000000000000000E+00
(PID.TID 0000.0001)     ;
(PID.TID 0000.0001) eosType =  /* Type of Equation of State */
(PID.TID 0000.0001)               'JMD95Z'
(PID.TID 0000.0001)     ;
(PID.TID 0000.0001) selectP_inEOS_Zc = /* select pressure to use in EOS (0,1,2,3) */
(PID.TID 0000.0001)                       0
(PID.TID 0000.0001)     0= -g*rhoConst*z ; 1= pRef (from tRef,sRef); 2= Hyd P ; 3= Hyd+NH P
(PID.TID 0000.0001)     ;
(PID.TID 0000.0001) HeatCapacity_Cp =  /* Specific heat capacity ( J/kg/K ) */
(PID.TID 0000.0001)                 3.994000000000000E+03
(PID.TID 0000.0001)     ;
(PID.TID 0000.0001) celsius2K = /* 0 degree Celsius converted to Kelvin ( K ) */
(PID.TID 0000.0001)                 2.731500000000000E+02
(PID.TID 0000.0001)     ;
(PID.TID 0000.0001) rhoConst  = /* Reference density (Boussinesq)  ( kg/m^3 ) */
(PID.TID 0000.0001)                 1.029000000000000E+03
(PID.TID 0000.0001)     ;
(PID.TID 0000.0001) rhoFacC = /* normalized Reference density @ cell-Center (-) */
(PID.TID 0000.0001)   100 @  1.000000000000000E+00              /* K =  1:100 */
(PID.TID 0000.0001)     ;
(PID.TID 0000.0001) rhoFacF = /* normalized Reference density @ W-Interface (-) */
(PID.TID 0000.0001)   101 @  1.000000000000000E+00              /* K =  1:101 */
(PID.TID 0000.0001)     ;
(PID.TID 0000.0001) rhoConstFresh = /* Fresh-water reference density ( kg/m^3 ) */
(PID.TID 0000.0001)                 1.000000000000000E+03
(PID.TID 0000.0001)     ;
(PID.TID 0000.0001) gravity =   /* Gravitational acceleration ( m/s^2 ) */
(PID.TID 0000.0001)                 9.810000000000000E+00
(PID.TID 0000.0001)     ;
(PID.TID 0000.0001) gBaro =   /* Barotropic gravity ( m/s^2 ) */
(PID.TID 0000.0001)                 9.810000000000000E+00
(PID.TID 0000.0001)     ;
(PID.TID 0000.0001) gravFacC = /* gravity factor (vs surf.) @ cell-Center (-) */
(PID.TID 0000.0001)   100 @  1.000000000000000E+00              /* K =  1:100 */
(PID.TID 0000.0001)     ;
(PID.TID 0000.0001) gravFacF = /* gravity factor (vs surf.) @ W-Interface (-) */
(PID.TID 0000.0001)   101 @  1.000000000000000E+00              /* K =  1:101 */
(PID.TID 0000.0001)     ;
(PID.TID 0000.0001) rotationPeriod =   /* Rotation Period ( s ) */
(PID.TID 0000.0001)                 8.616400000000000E+04
(PID.TID 0000.0001)     ;
(PID.TID 0000.0001) omega =   /* Angular velocity ( rad/s ) */
(PID.TID 0000.0001)                 7.292123516990375E-05
(PID.TID 0000.0001)     ;
(PID.TID 0000.0001) f0 =   /* Reference coriolis parameter ( 1/s ) */
(PID.TID 0000.0001)                 1.000000000000000E-04
(PID.TID 0000.0001)     ;
(PID.TID 0000.0001) beta =   /* Beta ( 1/(m.s) ) */
(PID.TID 0000.0001)                 9.999999999999999E-12
(PID.TID 0000.0001)     ;
(PID.TID 0000.0001) fPrime =   /* Second coriolis parameter ( 1/s ) */
(PID.TID 0000.0001)                 0.000000000000000E+00
(PID.TID 0000.0001)     ;
(PID.TID 0000.0001) rigidLid =   /* Rigid lid on/off flag */
(PID.TID 0000.0001)                   F
(PID.TID 0000.0001)     ;
(PID.TID 0000.0001) implicitFreeSurface =   /* Implicit free surface on/off flag */
(PID.TID 0000.0001)                   T
(PID.TID 0000.0001)     ;
(PID.TID 0000.0001) freeSurfFac =   /* Implicit free surface factor */
(PID.TID 0000.0001)                 1.000000000000000E+00
(PID.TID 0000.0001)     ;
(PID.TID 0000.0001) implicSurfPress =  /* Surface Pressure implicit factor (0-1)*/
(PID.TID 0000.0001)                 1.000000000000000E+00
(PID.TID 0000.0001)     ;
(PID.TID 0000.0001) implicDiv2DFlow =  /* Barot. Flow Div. implicit factor (0-1)*/
(PID.TID 0000.0001)                 1.000000000000000E+00
(PID.TID 0000.0001)     ;
(PID.TID 0000.0001) uniformLin_PhiSurf = /* use uniform Bo_surf on/off flag*/
(PID.TID 0000.0001)                   T
(PID.TID 0000.0001)     ;
(PID.TID 0000.0001) uniformFreeSurfLev = /* free-surface level-index is uniform */
(PID.TID 0000.0001)                   T
(PID.TID 0000.0001)     ;
(PID.TID 0000.0001) hFacMin =   /* minimum partial cell factor (hFac) */
(PID.TID 0000.0001)                 2.000000000000000E-01
(PID.TID 0000.0001)     ;
(PID.TID 0000.0001) hFacMinDr = /* minimum partial cell thickness ( m) */
(PID.TID 0000.0001)                 5.000000000000000E+00
(PID.TID 0000.0001)     ;
(PID.TID 0000.0001) exactConserv =  /* Exact Volume Conservation on/off flag*/
(PID.TID 0000.0001)                   T
(PID.TID 0000.0001)     ;
(PID.TID 0000.0001) linFSConserveTr = /* Tracer correction for Lin Free Surface on/off flag*/
(PID.TID 0000.0001)                   F
(PID.TID 0000.0001)     ;
(PID.TID 0000.0001) nonlinFreeSurf = /* Non-linear Free Surf. options (-1,0,1,2,3)*/
(PID.TID 0000.0001)                       0
(PID.TID 0000.0001)      -1,0= Off ; 1,2,3= On, 2=+rescale gU,gV, 3=+update cg2d solv.
(PID.TID 0000.0001)     ;
(PID.TID 0000.0001) hFacInf =   /* lower threshold for hFac (nonlinFreeSurf only)*/
(PID.TID 0000.0001)                 2.000000000000000E-01
(PID.TID 0000.0001)     ;
(PID.TID 0000.0001) hFacSup =   /* upper threshold for hFac (nonlinFreeSurf only)*/
(PID.TID 0000.0001)                 2.000000000000000E+00
(PID.TID 0000.0001)     ;
(PID.TID 0000.0001) select_rStar = /* r* Vertical coord. options (=0 r coord.; >0 uses r*)*/
(PID.TID 0000.0001)                       0
(PID.TID 0000.0001)     ;
(PID.TID 0000.0001) useRealFreshWaterFlux = /* Real Fresh Water Flux on/off flag*/
(PID.TID 0000.0001)                   F
(PID.TID 0000.0001)     ;
(PID.TID 0000.0001) temp_EvPrRn = /* Temp. of Evap/Prec/R (UNSET=use local T)(oC)*/
(PID.TID 0000.0001)                 0.000000000000000E+00
(PID.TID 0000.0001)     ;
(PID.TID 0000.0001) salt_EvPrRn = /* Salin. of Evap/Prec/R (UNSET=use local S)(psu)*/
(PID.TID 0000.0001)                 0.000000000000000E+00
(PID.TID 0000.0001)     ;
(PID.TID 0000.0001) selectAddFluid = /* option for mass source/sink of fluid (=0: off) */
(PID.TID 0000.0001)                       0
(PID.TID 0000.0001)     ;
(PID.TID 0000.0001) temp_addMass = /* Temp. of addMass array (UNSET=use local T)(oC)*/
(PID.TID 0000.0001)                 0.000000000000000E+00
(PID.TID 0000.0001)     ;
(PID.TID 0000.0001) salt_addMass = /* Salin. of addMass array (UNSET=use local S)(psu)*/
(PID.TID 0000.0001)                 0.000000000000000E+00
(PID.TID 0000.0001)     ;
(PID.TID 0000.0001) convertFW2Salt = /* convert F.W. Flux to Salt Flux (-1=use local S)(psu)*/
(PID.TID 0000.0001)                -1.000000000000000E+00
(PID.TID 0000.0001)     ;
(PID.TID 0000.0001) use3Dsolver = /* use 3-D pressure solver on/off flag */
(PID.TID 0000.0001)                   F
(PID.TID 0000.0001)     ;
(PID.TID 0000.0001) nonHydrostatic =  /* Non-Hydrostatic on/off flag */
(PID.TID 0000.0001)                   F
(PID.TID 0000.0001)     ;
(PID.TID 0000.0001) nh_Am2 = /* Non-Hydrostatic terms scaling factor */
(PID.TID 0000.0001)                 1.000000000000000E+00
(PID.TID 0000.0001)     ;
(PID.TID 0000.0001) implicitNHPress = /* Non-Hyd Pressure implicit factor (0-1)*/
(PID.TID 0000.0001)                 1.000000000000000E+00
(PID.TID 0000.0001)     ;
(PID.TID 0000.0001) selectNHfreeSurf = /* Non-Hyd (free-)Surface option */
(PID.TID 0000.0001)                       0
(PID.TID 0000.0001)     ;
(PID.TID 0000.0001) quasiHydrostatic = /* Quasi-Hydrostatic on/off flag */
(PID.TID 0000.0001)                   F
(PID.TID 0000.0001)     ;
(PID.TID 0000.0001) calc_wVelocity = /* vertical velocity calculation on/off flag */
(PID.TID 0000.0001)                   T
(PID.TID 0000.0001)     ;
(PID.TID 0000.0001) momStepping =  /* Momentum equation on/off flag */
(PID.TID 0000.0001)                   T
(PID.TID 0000.0001)     ;
(PID.TID 0000.0001) vectorInvariantMomentum= /* Vector-Invariant Momentum on/off */
(PID.TID 0000.0001)                   T
(PID.TID 0000.0001)     ;
(PID.TID 0000.0001) momAdvection =  /* Momentum advection on/off flag */
(PID.TID 0000.0001)                   T
(PID.TID 0000.0001)     ;
(PID.TID 0000.0001) momViscosity =  /* Momentum viscosity on/off flag */
(PID.TID 0000.0001)                   T
(PID.TID 0000.0001)     ;
(PID.TID 0000.0001) momImplVertAdv= /* Momentum implicit vert. advection on/off*/
(PID.TID 0000.0001)                   F
(PID.TID 0000.0001)     ;
(PID.TID 0000.0001) implicitViscosity = /* Implicit viscosity on/off flag */
(PID.TID 0000.0001)                   T
(PID.TID 0000.0001)     ;
(PID.TID 0000.0001) selectImplicitDrag= /* Implicit bot Drag options (0,1,2)*/
(PID.TID 0000.0001)                       0
(PID.TID 0000.0001)     0= Expl. ; 1= Impl. on provis. Vel ; 2= Fully Impl (with surf.P)
(PID.TID 0000.0001)     ;
(PID.TID 0000.0001) metricTerms =  /* metric-Terms on/off flag */
(PID.TID 0000.0001)                   T
(PID.TID 0000.0001)     ;
(PID.TID 0000.0001) useNHMTerms = /* Non-Hydrostatic Metric-Terms on/off */
(PID.TID 0000.0001)                   F
(PID.TID 0000.0001)     ;
(PID.TID 0000.0001) selectCoriMap = /* Coriolis Map options (0,1,2,3)*/
(PID.TID 0000.0001)                       2
(PID.TID 0000.0001)     0= f-Plane ; 1= Beta-Plane ; 2= Spherical ; 3= read from file
(PID.TID 0000.0001)     ;
(PID.TID 0000.0001) use3dCoriolis = /* 3-D Coriolis on/off flag */
(PID.TID 0000.0001)                   F
(PID.TID 0000.0001)     ;
(PID.TID 0000.0001) useCoriolis =  /* Coriolis on/off flag */
(PID.TID 0000.0001)                   T
(PID.TID 0000.0001)     ;
(PID.TID 0000.0001) useCDscheme =  /* CD scheme on/off flag */
(PID.TID 0000.0001)                   F
(PID.TID 0000.0001)     ;
(PID.TID 0000.0001) useEnergyConservingCoriolis= /* Flx-Form Coriolis scheme flag */
(PID.TID 0000.0001)                   F
(PID.TID 0000.0001)     ;
(PID.TID 0000.0001) useJamartWetPoints= /* Coriolis WetPoints method flag */
(PID.TID 0000.0001)                   F
(PID.TID 0000.0001)     ;
(PID.TID 0000.0001) useJamartMomAdv= /* V.I Non-linear terms Jamart flag */
(PID.TID 0000.0001)                   F
(PID.TID 0000.0001)     ;
(PID.TID 0000.0001) useAbsVorticity= /* V.I Works with f+zeta in Coriolis */
(PID.TID 0000.0001)                   F
(PID.TID 0000.0001)     ;
(PID.TID 0000.0001) selectVortScheme= /* V.I Scheme selector for Vorticity-Term */
(PID.TID 0000.0001)                       0
(PID.TID 0000.0001)    = 0 : enstrophy (Shallow-Water Eq.) conserving scheme by Sadourny, JAS 75
(PID.TID 0000.0001)    = 1 : same as 0 with modified hFac
(PID.TID 0000.0001)    = 2 : energy conserving scheme (used by Sadourny in JAS 75 paper)
(PID.TID 0000.0001)    = 3 : energy (general) and enstrophy (2D, nonDiv.) conserving scheme
(PID.TID 0000.0001)          from Sadourny (Burridge & Haseler, ECMWF Rep.4, 1977)
(PID.TID 0000.0001)     ;
(PID.TID 0000.0001) upwindVorticity= /* V.I Upwind bias vorticity flag */
(PID.TID 0000.0001)                   F
(PID.TID 0000.0001)     ;
(PID.TID 0000.0001) highOrderVorticity= /* V.I High order vort. advect. flag */
(PID.TID 0000.0001)                   T
(PID.TID 0000.0001)     ;
(PID.TID 0000.0001) upwindShear= /* V.I Upwind vertical Shear advection flag */
(PID.TID 0000.0001)                   F
(PID.TID 0000.0001)     ;
(PID.TID 0000.0001) selectKEscheme= /* V.I Kinetic Energy scheme selector */
(PID.TID 0000.0001)                       0
(PID.TID 0000.0001)     ;
(PID.TID 0000.0001) momForcing =  /* Momentum forcing on/off flag */
(PID.TID 0000.0001)                   T
(PID.TID 0000.0001)     ;
(PID.TID 0000.0001) momTidalForcing = /* Momentum Tidal forcing on/off flag */
(PID.TID 0000.0001)                   T
(PID.TID 0000.0001)     ;
(PID.TID 0000.0001) momPressureForcing =  /* Momentum pressure term on/off flag */
(PID.TID 0000.0001)                   T
(PID.TID 0000.0001)     ;
(PID.TID 0000.0001) implicitIntGravWave= /* Implicit Internal Gravity Wave flag */
(PID.TID 0000.0001)                   F
(PID.TID 0000.0001)     ;
(PID.TID 0000.0001) staggerTimeStep =    /* Stagger time stepping on/off flag */
(PID.TID 0000.0001)                   T
(PID.TID 0000.0001)     ;
(PID.TID 0000.0001) doResetHFactors = /* reset thickness factors @ each time-step */
(PID.TID 0000.0001)                   F
(PID.TID 0000.0001)     ;
(PID.TID 0000.0001) multiDimAdvection =  /* enable/disable Multi-Dim Advection */
(PID.TID 0000.0001)                   T
(PID.TID 0000.0001)     ;
(PID.TID 0000.0001) useMultiDimAdvec =   /* Multi-Dim Advection is/is-not used */
(PID.TID 0000.0001)                   T
(PID.TID 0000.0001)     ;
(PID.TID 0000.0001) implicitDiffusion = /* Implicit Diffusion on/off flag */
(PID.TID 0000.0001)                   T
(PID.TID 0000.0001)     ;
(PID.TID 0000.0001) tempStepping =  /* Temperature equation on/off flag */
(PID.TID 0000.0001)                   T
(PID.TID 0000.0001)     ;
(PID.TID 0000.0001) tempAdvection = /* Temperature advection on/off flag */
(PID.TID 0000.0001)                   T
(PID.TID 0000.0001)     ;
(PID.TID 0000.0001) tempImplVertAdv = /* Temp. implicit vert. advection on/off */
(PID.TID 0000.0001)                   F
(PID.TID 0000.0001)     ;
(PID.TID 0000.0001) tempForcing  =  /* Temperature forcing on/off flag */
(PID.TID 0000.0001)                   T
(PID.TID 0000.0001)     ;
(PID.TID 0000.0001) doThetaClimRelax = /* apply SST relaxation on/off flag */
(PID.TID 0000.0001)                   F
(PID.TID 0000.0001)     ;
(PID.TID 0000.0001) tempIsActiveTr = /* Temp. is a dynamically Active Tracer */
(PID.TID 0000.0001)                   T
(PID.TID 0000.0001)     ;
(PID.TID 0000.0001) saltStepping =  /* Salinity equation on/off flag */
(PID.TID 0000.0001)                   T
(PID.TID 0000.0001)     ;
(PID.TID 0000.0001) saltAdvection = /* Salinity advection on/off flag */
(PID.TID 0000.0001)                   T
(PID.TID 0000.0001)     ;
(PID.TID 0000.0001) saltImplVertAdv = /* Sali. implicit vert. advection on/off */
(PID.TID 0000.0001)                   F
(PID.TID 0000.0001)     ;
(PID.TID 0000.0001) saltForcing  =  /* Salinity forcing on/off flag */
(PID.TID 0000.0001)                   T
(PID.TID 0000.0001)     ;
(PID.TID 0000.0001) doSaltClimRelax = /* apply SSS relaxation on/off flag */
(PID.TID 0000.0001)                   F
(PID.TID 0000.0001)     ;
(PID.TID 0000.0001) saltIsActiveTr = /* Salt  is a dynamically Active Tracer */
(PID.TID 0000.0001)                   T
(PID.TID 0000.0001)     ;
(PID.TID 0000.0001)  readBinaryPrec = /* Precision used for reading binary files */
(PID.TID 0000.0001)                      32
(PID.TID 0000.0001)     ;
(PID.TID 0000.0001) writeBinaryPrec = /* Precision used for writing binary files */
(PID.TID 0000.0001)                      32
(PID.TID 0000.0001)     ;
(PID.TID 0000.0001)  rwSuffixType =   /* select format of mds file suffix */
(PID.TID 0000.0001)                       0
(PID.TID 0000.0001)    = 0 : myIter (I10.10) ;   = 1 : 100*myTime (100th sec) ;
(PID.TID 0000.0001)    = 2 : myTime (seconds);   = 3 : myTime/360 (10th of hr);
(PID.TID 0000.0001)    = 4 : myTime/3600 (hours)
(PID.TID 0000.0001)     ;
(PID.TID 0000.0001)  globalFiles = /* write "global" (=not per tile) files */
(PID.TID 0000.0001)                   T
(PID.TID 0000.0001)     ;
(PID.TID 0000.0001)  useSingleCpuIO = /* only master MPI process does I/O */
(PID.TID 0000.0001)                   T
(PID.TID 0000.0001)     ;
(PID.TID 0000.0001)  useSingleCpuInput = /* only master process reads input */
(PID.TID 0000.0001)                   T
(PID.TID 0000.0001)     ;
(PID.TID 0000.0001) /* debLev[*]  : level of debug & auxiliary message printing */
(PID.TID 0000.0001) debLevZero =  0 ; /* level of disabled aux. msg printing */
(PID.TID 0000.0001)    debLevA =  1 ; /* level of minimum  aux. msg printing */
(PID.TID 0000.0001)    debLevB =  2 ; /* level of low aux. print (report read-file opening)*/
(PID.TID 0000.0001)    debLevC =  3 ; /* level of moderate debug prt (most pkgs debug msg) */
(PID.TID 0000.0001)    debLevD =  4 ; /* level of enhanced debug prt (add DEBUG_STATS prt) */
(PID.TID 0000.0001)    debLevE =  5 ; /* level of extensive debug printing */
(PID.TID 0000.0001) debugLevel =  /* select debug printing level */
(PID.TID 0000.0001)                       2
(PID.TID 0000.0001)     ;
(PID.TID 0000.0001)  plotLevel =  /* select PLOT_FIELD printing level */
(PID.TID 0000.0001)                       2
(PID.TID 0000.0001)     ;
(PID.TID 0000.0001) //
(PID.TID 0000.0001) // Elliptic solver(s) paramters ( PARM02 in namelist )
(PID.TID 0000.0001) //
(PID.TID 0000.0001) cg2dMaxIters =   /* Upper limit on 2d con. grad iterations  */
(PID.TID 0000.0001)                    1000
(PID.TID 0000.0001)     ;
(PID.TID 0000.0001) cg2dChkResFreq =   /* 2d con. grad convergence test frequency */
(PID.TID 0000.0001)                       1
(PID.TID 0000.0001)     ;
(PID.TID 0000.0001) cg2dUseMinResSol= /* use cg2d last-iter(=0) / min-resid.(=1) solution */
(PID.TID 0000.0001)                       0
(PID.TID 0000.0001)     ;
(PID.TID 0000.0001) cg2dTargetResidual =   /* 2d con. grad target residual  */
(PID.TID 0000.0001)                 1.000000000000000E-07
(PID.TID 0000.0001)     ;
(PID.TID 0000.0001) cg2dTargetResWunit =   /* CG2d target residual [W units] */
(PID.TID 0000.0001)                 1.000000000000000E-18
(PID.TID 0000.0001)     ;
(PID.TID 0000.0001) cg2dPreCondFreq =   /* Freq. for updating cg2d preconditioner */
(PID.TID 0000.0001)                       1
(PID.TID 0000.0001)     ;
(PID.TID 0000.0001) useSRCGSolver =  /* use single reduction CG solver(s) */
(PID.TID 0000.0001)                   F
(PID.TID 0000.0001)     ;
(PID.TID 0000.0001) printResidualFreq = /* Freq. for printing CG residual */
(PID.TID 0000.0001)                       0
(PID.TID 0000.0001)     ;
(PID.TID 0000.0001) //
(PID.TID 0000.0001) // Time stepping paramters ( PARM03 in namelist )
(PID.TID 0000.0001) //
(PID.TID 0000.0001) deltaTMom =   /* Momentum equation timestep ( s ) */
(PID.TID 0000.0001)                 2.400000000000000E+02
(PID.TID 0000.0001)     ;
(PID.TID 0000.0001) deltaTFreeSurf = /* FreeSurface equation timestep ( s ) */
(PID.TID 0000.0001)                 2.400000000000000E+02
(PID.TID 0000.0001)     ;
(PID.TID 0000.0001) dTtracerLev =  /* Tracer equation timestep ( s ) */
(PID.TID 0000.0001)   100 @  2.400000000000000E+02              /* K =  1:100 */
(PID.TID 0000.0001)     ;
(PID.TID 0000.0001) deltaTClock  =   /* Model clock timestep ( s ) */
(PID.TID 0000.0001)                 2.400000000000000E+02
(PID.TID 0000.0001)     ;
(PID.TID 0000.0001) cAdjFreq =   /* Convective adjustment interval ( s ) */
(PID.TID 0000.0001)                 0.000000000000000E+00
(PID.TID 0000.0001)     ;
(PID.TID 0000.0001) momForcingOutAB = /* =1: take Momentum Forcing out of Adams-Bash. stepping */
(PID.TID 0000.0001)                       1
(PID.TID 0000.0001)     ;
(PID.TID 0000.0001) tracForcingOutAB = /* =1: take T,S,pTr Forcing out of Adams-Bash. stepping */
(PID.TID 0000.0001)                       1
(PID.TID 0000.0001)     ;
(PID.TID 0000.0001) momDissip_In_AB = /* put Dissipation Tendency in Adams-Bash. stepping */
(PID.TID 0000.0001)                   F
(PID.TID 0000.0001)     ;
(PID.TID 0000.0001) doAB_onGtGs = /* apply AB on Tendencies (rather than on T,S)*/
(PID.TID 0000.0001)                   T
(PID.TID 0000.0001)     ;
(PID.TID 0000.0001) abEps =   /* Adams-Bashforth-2 stabilizing weight */
(PID.TID 0000.0001)                 1.000000000000000E-01
(PID.TID 0000.0001)     ;
(PID.TID 0000.0001) applyExchUV_early = /* Apply EXCH to U,V earlier in time-step */
(PID.TID 0000.0001)                   F
(PID.TID 0000.0001)     ;
(PID.TID 0000.0001) pickupStrictlyMatch= /* stop if pickup do not strictly match */
(PID.TID 0000.0001)                   F
(PID.TID 0000.0001)     ;
(PID.TID 0000.0001) nIter0   =   /* Run starting timestep number */
(PID.TID 0000.0001)                       0
(PID.TID 0000.0001)     ;
(PID.TID 0000.0001) nTimeSteps = /* Number of timesteps */
(PID.TID 0000.0001)                      15
(PID.TID 0000.0001)     ;
(PID.TID 0000.0001) nEndIter =   /* Run ending timestep number */
(PID.TID 0000.0001)                      15
(PID.TID 0000.0001)     ;
(PID.TID 0000.0001) baseTime =   /* Model base time ( s ) */
(PID.TID 0000.0001)                 0.000000000000000E+00
(PID.TID 0000.0001)     ;
(PID.TID 0000.0001) startTime =  /* Run start time ( s ) */
(PID.TID 0000.0001)                 0.000000000000000E+00
(PID.TID 0000.0001)     ;
(PID.TID 0000.0001) endTime  =   /* Integration ending time ( s ) */
(PID.TID 0000.0001)                 3.600000000000000E+03
(PID.TID 0000.0001)     ;
(PID.TID 0000.0001) pChkPtFreq = /* Permanent restart/pickup file interval ( s ) */
(PID.TID 0000.0001)                 8.640000000000000E+05
(PID.TID 0000.0001)     ;
(PID.TID 0000.0001) chkPtFreq  = /* Rolling restart/pickup file interval ( s ) */
(PID.TID 0000.0001)                 0.000000000000000E+00
(PID.TID 0000.0001)     ;
(PID.TID 0000.0001) pickup_write_mdsio =   /* Model IO flag. */
(PID.TID 0000.0001)                   T
(PID.TID 0000.0001)     ;
(PID.TID 0000.0001) pickup_read_mdsio =   /* Model IO flag. */
(PID.TID 0000.0001)                   T
(PID.TID 0000.0001)     ;
(PID.TID 0000.0001) writePickupAtEnd =   /* Model IO flag. */
(PID.TID 0000.0001)                   T
(PID.TID 0000.0001)     ;
(PID.TID 0000.0001) dumpFreq =   /* Model state write out interval ( s ). */
(PID.TID 0000.0001)                 0.000000000000000E+00
(PID.TID 0000.0001)     ;
(PID.TID 0000.0001) dumpInitAndLast= /* write out Initial & Last iter. model state */
(PID.TID 0000.0001)                   F
(PID.TID 0000.0001)     ;
(PID.TID 0000.0001) snapshot_mdsio =   /* Model IO flag. */
(PID.TID 0000.0001)                   T
(PID.TID 0000.0001)     ;
(PID.TID 0000.0001) monitorFreq =   /* Monitor output interval ( s ). */
(PID.TID 0000.0001)                 2.400000000000000E+02
(PID.TID 0000.0001)     ;
(PID.TID 0000.0001) monitorSelect = /* select group of variables to monitor */
(PID.TID 0000.0001)                       3
(PID.TID 0000.0001)     ;
(PID.TID 0000.0001) monitor_stdio =   /* Model IO flag. */
(PID.TID 0000.0001)                   T
(PID.TID 0000.0001)     ;
(PID.TID 0000.0001) externForcingPeriod =   /* forcing period (s) */
(PID.TID 0000.0001)                 0.000000000000000E+00
(PID.TID 0000.0001)     ;
(PID.TID 0000.0001) externForcingCycle =   /* period of the cyle (s). */
(PID.TID 0000.0001)                 0.000000000000000E+00
(PID.TID 0000.0001)     ;
(PID.TID 0000.0001) tauThetaClimRelax =   /* relaxation time scale (s) */
(PID.TID 0000.0001)                 0.000000000000000E+00
(PID.TID 0000.0001)     ;
(PID.TID 0000.0001) tauSaltClimRelax =   /* relaxation time scale (s) */
(PID.TID 0000.0001)                 0.000000000000000E+00
(PID.TID 0000.0001)     ;
(PID.TID 0000.0001) latBandClimRelax =   /* max. Lat. where relaxation */
(PID.TID 0000.0001)                 1.800000000000000E+02
(PID.TID 0000.0001)     ;
(PID.TID 0000.0001) //
(PID.TID 0000.0001) // Gridding paramters ( PARM04 in namelist )
(PID.TID 0000.0001) //
(PID.TID 0000.0001) usingCartesianGrid = /* Cartesian coordinates flag ( True/False ) */
(PID.TID 0000.0001)                   F
(PID.TID 0000.0001)     ;
(PID.TID 0000.0001) usingCylindricalGrid = /* Cylindrical coordinates flag ( True/False ) */
(PID.TID 0000.0001)                   F
(PID.TID 0000.0001)     ;
(PID.TID 0000.0001) usingSphericalPolarGrid = /* Spherical coordinates flag ( True/False ) */
(PID.TID 0000.0001)                   T
(PID.TID 0000.0001)     ;
(PID.TID 0000.0001) usingCurvilinearGrid = /* Curvilinear coordinates flag ( True/False ) */
(PID.TID 0000.0001)                   F
(PID.TID 0000.0001)     ;
(PID.TID 0000.0001) useMin4hFacEdges = /* set hFacW,S as minimum of adjacent hFacC factor */
(PID.TID 0000.0001)                   F
(PID.TID 0000.0001)     ;
(PID.TID 0000.0001) interViscAr_pCell = /* account for partial-cell in interior vert. viscosity */
(PID.TID 0000.0001)                   F
(PID.TID 0000.0001)     ;
(PID.TID 0000.0001) interDiffKr_pCell = /* account for partial-cell in interior vert. diffusion */
(PID.TID 0000.0001)                   F
(PID.TID 0000.0001)     ;
(PID.TID 0000.0001) pCellMix_select = /* option to enhance mixing near surface & bottom */
(PID.TID 0000.0001)                       0
(PID.TID 0000.0001)     ;
(PID.TID 0000.0001) selectSigmaCoord = /* Hybrid-Sigma Vert. Coordinate option */
(PID.TID 0000.0001)                       0
(PID.TID 0000.0001)     ;
(PID.TID 0000.0001) rSigmaBnd = /* r/sigma transition ( units of r ==  m ) */
(PID.TID 0000.0001)                 1.234567000000000E+05
(PID.TID 0000.0001)     ;
(PID.TID 0000.0001) rkSign =   /* index orientation relative to vertical coordinate */
(PID.TID 0000.0001)                -1.000000000000000E+00
(PID.TID 0000.0001)     ;
(PID.TID 0000.0001) gravitySign = /* gravity orientation relative to vertical coordinate */
(PID.TID 0000.0001)                -1.000000000000000E+00
(PID.TID 0000.0001)     ;
(PID.TID 0000.0001) seaLev_Z =  /* reference height of sea-level [m] */
(PID.TID 0000.0001)                 0.000000000000000E+00
(PID.TID 0000.0001)     ;
(PID.TID 0000.0001) top_Pres =  /* reference pressure at the top [Pa] */
(PID.TID 0000.0001)                 0.000000000000000E+00
(PID.TID 0000.0001)     ;
(PID.TID 0000.0001) mass2rUnit = /* convert mass per unit area [kg/m2] to r-units [m] */
(PID.TID 0000.0001)                 9.718172983479105E-04
(PID.TID 0000.0001)     ;
(PID.TID 0000.0001) rUnit2mass = /* convert r-units [m] to mass per unit area [kg/m2] */
(PID.TID 0000.0001)                 1.029000000000000E+03
(PID.TID 0000.0001)     ;
(PID.TID 0000.0001) drC =   /* C spacing ( units of r ) */
(PID.TID 0000.0001)                 2.500000000000000E+00,      /* K =  1 */
(PID.TID 0000.0001)    14 @  5.000000000000000E+00,             /* K =  2: 15 */
(PID.TID 0000.0001)                 5.005000000000000E+00,      /* K = 16 */
(PID.TID 0000.0001)                 5.010000000000000E+00,      /* K = 17 */
(PID.TID 0000.0001)                 5.015000000000000E+00,      /* K = 18 */
(PID.TID 0000.0001)                 5.029999999999999E+00,      /* K = 19 */
(PID.TID 0000.0001)                 5.055000000000000E+00,      /* K = 20 */
(PID.TID 0000.0001)                 5.095000000000001E+00,      /* K = 21 */
(PID.TID 0000.0001)                 5.160000000000000E+00,      /* K = 22 */
(PID.TID 0000.0001)                 5.255000000000000E+00,      /* K = 23 */
(PID.TID 0000.0001)                 5.400000000000000E+00,      /* K = 24 */
(PID.TID 0000.0001)                 5.605000000000000E+00,      /* K = 25 */
(PID.TID 0000.0001)                 5.880000000000000E+00,      /* K = 26 */
(PID.TID 0000.0001)                 6.245000000000000E+00,      /* K = 27 */
(PID.TID 0000.0001)                 6.710000000000000E+00,      /* K = 28 */
(PID.TID 0000.0001)                 7.295000000000000E+00,      /* K = 29 */
(PID.TID 0000.0001)                 8.020000000000000E+00,      /* K = 30 */
(PID.TID 0000.0001)                 8.890000000000001E+00,      /* K = 31 */
(PID.TID 0000.0001)                 9.910000000000000E+00,      /* K = 32 */
(PID.TID 0000.0001)                 1.109000000000000E+01,      /* K = 33 */
(PID.TID 0000.0001)                 1.242500000000000E+01,      /* K = 34 */
(PID.TID 0000.0001)                 1.391500000000000E+01,      /* K = 35 */
(PID.TID 0000.0001)                 1.555000000000000E+01,      /* K = 36 */
(PID.TID 0000.0001)                 1.732000000000000E+01,      /* K = 37 */
(PID.TID 0000.0001)                 1.921000000000000E+01,      /* K = 38 */
(PID.TID 0000.0001)                 2.119500000000000E+01,      /* K = 39 */
(PID.TID 0000.0001)                 2.325000000000000E+01,      /* K = 40 */
(PID.TID 0000.0001)                 2.536000000000000E+01,      /* K = 41 */
(PID.TID 0000.0001)                 2.750000000000000E+01,      /* K = 42 */
(PID.TID 0000.0001)                 2.964000000000000E+01,      /* K = 43 */
(PID.TID 0000.0001)                 3.175000000000000E+01,      /* K = 44 */
(PID.TID 0000.0001)                 3.380500000000000E+01,      /* K = 45 */
(PID.TID 0000.0001)                 3.579000000000000E+01,      /* K = 46 */
(PID.TID 0000.0001)                 3.768000000000000E+01,      /* K = 47 */
(PID.TID 0000.0001)                 3.945000000000000E+01,      /* K = 48 */
(PID.TID 0000.0001)                 4.108499999999999E+01,      /* K = 49 */
(PID.TID 0000.0001)                 4.257500000000000E+01,      /* K = 50 */
(PID.TID 0000.0001)                 4.391000000000000E+01,      /* K = 51 */
(PID.TID 0000.0001)                 4.509000000000000E+01,      /* K = 52 */
(PID.TID 0000.0001)                 4.611000000000000E+01,      /* K = 53 */
(PID.TID 0000.0001)                 4.698000000000000E+01,      /* K = 54 */
(PID.TID 0000.0001)                 4.770500000000000E+01,      /* K = 55 */
(PID.TID 0000.0001)                 4.829000000000000E+01,      /* K = 56 */
(PID.TID 0000.0001)                 4.875500000000000E+01,      /* K = 57 */
(PID.TID 0000.0001)                 4.912500000000000E+01,      /* K = 58 */
(PID.TID 0000.0001)                 4.941000000000000E+01,      /* K = 59 */
(PID.TID 0000.0001)                 4.962500000000000E+01,      /* K = 60 */
(PID.TID 0000.0001)                 4.981000000000000E+01,      /* K = 61 */
(PID.TID 0000.0001)                 5.000500000000000E+01,      /* K = 62 */
(PID.TID 0000.0001)                 5.026000000000000E+01,      /* K = 63 */
(PID.TID 0000.0001)                 5.066500000000000E+01,      /* K = 64 */
(PID.TID 0000.0001)                 5.130500000000000E+01,      /* K = 65 */
(PID.TID 0000.0001)                 5.228000000000000E+01,      /* K = 66 */
(PID.TID 0000.0001)                 5.370500000000000E+01,      /* K = 67 */
(PID.TID 0000.0001)                 5.566500000000000E+01,      /* K = 68 */
(PID.TID 0000.0001)                 5.823000000000000E+01,      /* K = 69 */
(PID.TID 0000.0001)                 6.141500000000000E+01,      /* K = 70 */
(PID.TID 0000.0001)                 6.521000000000001E+01,      /* K = 71 */
(PID.TID 0000.0001)                 6.954500000000000E+01,      /* K = 72 */
(PID.TID 0000.0001)                 7.433000000000000E+01,      /* K = 73 */
(PID.TID 0000.0001)                 7.947000000000000E+01,      /* K = 74 */
(PID.TID 0000.0001)                 8.486000000000000E+01,      /* K = 75 */
(PID.TID 0000.0001)                 9.041499999999999E+01,      /* K = 76 */
(PID.TID 0000.0001)                 9.606500000000000E+01,      /* K = 77 */
(PID.TID 0000.0001)                 1.017750000000000E+02,      /* K = 78 */
(PID.TID 0000.0001)                 1.075100000000000E+02,      /* K = 79 */
(PID.TID 0000.0001)                 1.132500000000000E+02,      /* K = 80 */
(PID.TID 0000.0001)                 1.189950000000000E+02,      /* K = 81 */
(PID.TID 0000.0001)                 1.247500000000000E+02,      /* K = 82 */
(PID.TID 0000.0001)                 1.305050000000000E+02,      /* K = 83 */
(PID.TID 0000.0001)                 1.362500000000000E+02,      /* K = 84 */
(PID.TID 0000.0001)                 1.419950000000000E+02,      /* K = 85 */
(PID.TID 0000.0001)                 1.477500000000000E+02,      /* K = 86 */
(PID.TID 0000.0001)                 1.535050000000000E+02,      /* K = 87 */
(PID.TID 0000.0001)                 1.592500000000000E+02,      /* K = 88 */
(PID.TID 0000.0001)                 1.649950000000000E+02,      /* K = 89 */
(PID.TID 0000.0001)                 1.707500000000000E+02,      /* K = 90 */
(PID.TID 0000.0001)                 1.765050000000000E+02,      /* K = 91 */
(PID.TID 0000.0001)                 1.822500000000000E+02,      /* K = 92 */
(PID.TID 0000.0001)                 1.879950000000000E+02,      /* K = 93 */
(PID.TID 0000.0001)                 1.937500000000000E+02,      /* K = 94 */
(PID.TID 0000.0001)                 1.995050000000000E+02,      /* K = 95 */
(PID.TID 0000.0001)                 2.052500000000000E+02,      /* K = 96 */
(PID.TID 0000.0001)                 2.109950000000000E+02,      /* K = 97 */
(PID.TID 0000.0001)                 2.167500000000000E+02,      /* K = 98 */
(PID.TID 0000.0001)                 2.225050000000000E+02,      /* K = 99 */
(PID.TID 0000.0001)                 2.282500000000000E+02,      /* K =100 */
(PID.TID 0000.0001)                 1.155600000000000E+02       /* K =101 */
(PID.TID 0000.0001)     ;
(PID.TID 0000.0001) drF =   /* W spacing ( units of r ) */
(PID.TID 0000.0001)    15 @  5.000000000000000E+00,             /* K =  1: 15 */
(PID.TID 0000.0001)     2 @  5.010000000000000E+00,             /* K = 16: 17 */
(PID.TID 0000.0001)                 5.020000000000000E+00,      /* K = 18 */
(PID.TID 0000.0001)                 5.040000000000000E+00,      /* K = 19 */
(PID.TID 0000.0001)                 5.070000000000000E+00,      /* K = 20 */
(PID.TID 0000.0001)                 5.120000000000000E+00,      /* K = 21 */
(PID.TID 0000.0001)                 5.200000000000000E+00,      /* K = 22 */
(PID.TID 0000.0001)                 5.310000000000000E+00,      /* K = 23 */
(PID.TID 0000.0001)                 5.490000000000000E+00,      /* K = 24 */
(PID.TID 0000.0001)                 5.720000000000000E+00,      /* K = 25 */
(PID.TID 0000.0001)                 6.040000000000000E+00,      /* K = 26 */
(PID.TID 0000.0001)                 6.450000000000000E+00,      /* K = 27 */
(PID.TID 0000.0001)                 6.970000000000000E+00,      /* K = 28 */
(PID.TID 0000.0001)                 7.620000000000000E+00,      /* K = 29 */
(PID.TID 0000.0001)                 8.420000000000000E+00,      /* K = 30 */
(PID.TID 0000.0001)                 9.359999999999999E+00,      /* K = 31 */
(PID.TID 0000.0001)                 1.046000000000000E+01,      /* K = 32 */
(PID.TID 0000.0001)                 1.172000000000000E+01,      /* K = 33 */
(PID.TID 0000.0001)                 1.313000000000000E+01,      /* K = 34 */
(PID.TID 0000.0001)                 1.470000000000000E+01,      /* K = 35 */
(PID.TID 0000.0001)                 1.640000000000000E+01,      /* K = 36 */
(PID.TID 0000.0001)                 1.824000000000000E+01,      /* K = 37 */
(PID.TID 0000.0001)                 2.018000000000000E+01,      /* K = 38 */
(PID.TID 0000.0001)                 2.221000000000000E+01,      /* K = 39 */
(PID.TID 0000.0001)                 2.429000000000000E+01,      /* K = 40 */
(PID.TID 0000.0001)                 2.643000000000000E+01,      /* K = 41 */
(PID.TID 0000.0001)                 2.857000000000000E+01,      /* K = 42 */
(PID.TID 0000.0001)                 3.071000000000000E+01,      /* K = 43 */
(PID.TID 0000.0001)                 3.279000000000000E+01,      /* K = 44 */
(PID.TID 0000.0001)                 3.482000000000000E+01,      /* K = 45 */
(PID.TID 0000.0001)                 3.676000000000000E+01,      /* K = 46 */
(PID.TID 0000.0001)                 3.860000000000000E+01,      /* K = 47 */
(PID.TID 0000.0001)                 4.030000000000000E+01,      /* K = 48 */
(PID.TID 0000.0001)                 4.187000000000000E+01,      /* K = 49 */
(PID.TID 0000.0001)                 4.328000000000000E+01,      /* K = 50 */
(PID.TID 0000.0001)                 4.454000000000000E+01,      /* K = 51 */
(PID.TID 0000.0001)                 4.564000000000000E+01,      /* K = 52 */
(PID.TID 0000.0001)                 4.658000000000000E+01,      /* K = 53 */
(PID.TID 0000.0001)                 4.738000000000000E+01,      /* K = 54 */
(PID.TID 0000.0001)                 4.803000000000000E+01,      /* K = 55 */
(PID.TID 0000.0001)                 4.855000000000000E+01,      /* K = 56 */
(PID.TID 0000.0001)                 4.896000000000000E+01,      /* K = 57 */
(PID.TID 0000.0001)                 4.929000000000000E+01,      /* K = 58 */
(PID.TID 0000.0001)                 4.953000000000000E+01,      /* K = 59 */
(PID.TID 0000.0001)                 4.972000000000000E+01,      /* K = 60 */
(PID.TID 0000.0001)                 4.990000000000000E+01,      /* K = 61 */
(PID.TID 0000.0001)                 5.011000000000000E+01,      /* K = 62 */
(PID.TID 0000.0001)                 5.041000000000000E+01,      /* K = 63 */
(PID.TID 0000.0001)                 5.092000000000000E+01,      /* K = 64 */
(PID.TID 0000.0001)                 5.169000000000000E+01,      /* K = 65 */
(PID.TID 0000.0001)                 5.287000000000000E+01,      /* K = 66 */
(PID.TID 0000.0001)                 5.454000000000000E+01,      /* K = 67 */
(PID.TID 0000.0001)                 5.679000000000000E+01,      /* K = 68 */
(PID.TID 0000.0001)                 5.967000000000000E+01,      /* K = 69 */
(PID.TID 0000.0001)                 6.316000000000000E+01,      /* K = 70 */
(PID.TID 0000.0001)                 6.726000000000001E+01,      /* K = 71 */
(PID.TID 0000.0001)                 7.183000000000000E+01,      /* K = 72 */
(PID.TID 0000.0001)                 7.683000000000000E+01,      /* K = 73 */
(PID.TID 0000.0001)                 8.211000000000000E+01,      /* K = 74 */
(PID.TID 0000.0001)                 8.761000000000000E+01,      /* K = 75 */
(PID.TID 0000.0001)                 9.322000000000000E+01,      /* K = 76 */
(PID.TID 0000.0001)                 9.891000000000000E+01,      /* K = 77 */
(PID.TID 0000.0001)                 1.046400000000000E+02,      /* K = 78 */
(PID.TID 0000.0001)                 1.103800000000000E+02,      /* K = 79 */
(PID.TID 0000.0001)                 1.161200000000000E+02,      /* K = 80 */
(PID.TID 0000.0001)                 1.218700000000000E+02,      /* K = 81 */
(PID.TID 0000.0001)                 1.276300000000000E+02,      /* K = 82 */
(PID.TID 0000.0001)                 1.333800000000000E+02,      /* K = 83 */
(PID.TID 0000.0001)                 1.391200000000000E+02,      /* K = 84 */
(PID.TID 0000.0001)                 1.448700000000000E+02,      /* K = 85 */
(PID.TID 0000.0001)                 1.506300000000000E+02,      /* K = 86 */
(PID.TID 0000.0001)                 1.563800000000000E+02,      /* K = 87 */
(PID.TID 0000.0001)                 1.621200000000000E+02,      /* K = 88 */
(PID.TID 0000.0001)                 1.678700000000000E+02,      /* K = 89 */
(PID.TID 0000.0001)                 1.736300000000000E+02,      /* K = 90 */
(PID.TID 0000.0001)                 1.793800000000000E+02,      /* K = 91 */
(PID.TID 0000.0001)                 1.851200000000000E+02,      /* K = 92 */
(PID.TID 0000.0001)                 1.908700000000000E+02,      /* K = 93 */
(PID.TID 0000.0001)                 1.966300000000000E+02,      /* K = 94 */
(PID.TID 0000.0001)                 2.023800000000000E+02,      /* K = 95 */
(PID.TID 0000.0001)                 2.081200000000000E+02,      /* K = 96 */
(PID.TID 0000.0001)                 2.138700000000000E+02,      /* K = 97 */
(PID.TID 0000.0001)                 2.196300000000000E+02,      /* K = 98 */
(PID.TID 0000.0001)                 2.253800000000000E+02,      /* K = 99 */
(PID.TID 0000.0001)                 2.311200000000000E+02       /* K =100 */
(PID.TID 0000.0001)     ;
(PID.TID 0000.0001) delX = /* U spacing ( m - cartesian, degrees - spherical ) */
(PID.TID 0000.0001)  1815 @  4.166666666666700E-02              /* I =   1:1815 */
(PID.TID 0000.0001)     ;
(PID.TID 0000.0001) delY = /* V spacing ( m - cartesian, degrees - spherical ) */
(PID.TID 0000.0001)                 3.417015075683594E-02,      /* J =  1 */
(PID.TID 0000.0001)                 3.416061401367188E-02,      /* J =  2 */
(PID.TID 0000.0001)                 3.415107727050781E-02,      /* J =  3 */
(PID.TID 0000.0001)      . . .
(PID.TID 0000.0001)                 3.279495239257812E-02,      /* J =131 */
(PID.TID 0000.0001)                 3.278350830078125E-02,      /* J =132 */
(PID.TID 0000.0001)                 3.277397155761719E-02,      /* J =133 */
(PID.TID 0000.0001)                 3.276252746582031E-02,      /* J =134 */
(PID.TID 0000.0001)                 3.275299072265625E-02,      /* J =135 */
(PID.TID 0000.0001)                 3.273963928222656E-02,      /* J =136 */
(PID.TID 0000.0001)      . . .
(PID.TID 0000.0001)                 3.129959106445312E-02,      /* J =264 */
(PID.TID 0000.0001)                 3.128814697265625E-02,      /* J =265 */
(PID.TID 0000.0001)                 3.127288818359375E-02,      /* J =266 */
(PID.TID 0000.0001)                 3.126525878906250E-02,      /* J =267 */
(PID.TID 0000.0001)                 3.125000000000000E-02,      /* J =268 */
(PID.TID 0000.0001)                 3.124237060546875E-02,      /* J =269 */
(PID.TID 0000.0001)      . . .
(PID.TID 0000.0001)                 2.974700927734375E-02,      /* J =397 */
(PID.TID 0000.0001)                 2.973175048828125E-02,      /* J =398 */
(PID.TID 0000.0001)                 2.971649169921875E-02,      /* J =399 */
(PID.TID 0000.0001)                 2.970886230468750E-02,      /* J =400 */
(PID.TID 0000.0001)                 2.969741821289062E-02,      /* J =401 */
(PID.TID 0000.0001)                 2.968597412109375E-02,      /* J =402 */
(PID.TID 0000.0001)      . . .
(PID.TID 0000.0001)                 2.816009521484375E-02,      /* J =530 */
(PID.TID 0000.0001)                 2.815246582031250E-02,      /* J =531 */
(PID.TID 0000.0001)                 2.813720703125000E-02       /* J =532 */
(PID.TID 0000.0001)     ;
(PID.TID 0000.0001) xgOrigin = /* X-axis origin of West  edge (cartesian: m, lat-lon: deg) */
(PID.TID 0000.0001)                -8.158333587646484E+01
(PID.TID 0000.0001)     ;
(PID.TID 0000.0001) ygOrigin = /* Y-axis origin of South edge (cartesian: m, lat-lon: deg) */
(PID.TID 0000.0001)                 2.685529327392578E+01
(PID.TID 0000.0001)     ;
(PID.TID 0000.0001) rSphere =  /* Radius ( ignored - cartesian, m - spherical ) */
(PID.TID 0000.0001)                 6.370000000000000E+06
(PID.TID 0000.0001)     ;
(PID.TID 0000.0001) deepAtmosphere = /* Deep/Shallow Atmosphere flag (True/False) */
(PID.TID 0000.0001)                   F
(PID.TID 0000.0001)     ;
(PID.TID 0000.0001) xC =  /* xC(:,1,:,1) : P-point X coord ( deg. or m if cartesian) */
(PID.TID 0000.0001)                -8.156250254313150E+01,      /* I =  1 */
(PID.TID 0000.0001)                -8.152083587646484E+01,      /* I =  2 */
(PID.TID 0000.0001)                -8.147916920979816E+01,      /* I =  3 */
(PID.TID 0000.0001)      . . .
(PID.TID 0000.0001)                -8.039583587646470E+01,      /* I = 29 */
(PID.TID 0000.0001)                -8.035416920979804E+01,      /* I = 30 */
(PID.TID 0000.0001)                -8.031250254313136E+01,      /* I = 31 */
(PID.TID 0000.0001)                -8.027083587646470E+01,      /* I = 32 */
(PID.TID 0000.0001)                -8.022916920979802E+01,      /* I = 33 */
(PID.TID 0000.0001)      . . .
(PID.TID 0000.0001)                -7.914583587646456E+01,      /* I = 59 */
(PID.TID 0000.0001)                -7.910416920979790E+01,      /* I = 60 */
(PID.TID 0000.0001)                -7.906250254313122E+01,      /* I = 61 */
(PID.TID 0000.0001)                -7.902083587646456E+01,      /* I = 62 */
(PID.TID 0000.0001)                -7.897916920979787E+01,      /* I = 63 */
(PID.TID 0000.0001)      . . .
(PID.TID 0000.0001)                -7.789583587646442E+01,      /* I = 89 */
(PID.TID 0000.0001)                -7.785416920979776E+01,      /* I = 90 */
(PID.TID 0000.0001)                -7.781250254313107E+01,      /* I = 91 */
(PID.TID 0000.0001)                -7.777083587646442E+01,      /* I = 92 */
(PID.TID 0000.0001)                -7.772916920979773E+01,      /* I = 93 */
(PID.TID 0000.0001)      . . .
(PID.TID 0000.0001)                -7.664583587646428E+01,      /* I =119 */
(PID.TID 0000.0001)                -7.660416920979762E+01,      /* I =120 */
(PID.TID 0000.0001)                -7.656250254313093E+01       /* I =121 */
(PID.TID 0000.0001)     ;
(PID.TID 0000.0001) yC =  /* yC(1,:,1,:) : P-point Y coord ( deg. or m if cartesian) */
(PID.TID 0000.0001)                 2.687237834930420E+01,      /* J =  1 */
(PID.TID 0000.0001)                 2.690654373168945E+01,      /* J =  2 */
(PID.TID 0000.0001)                 2.694069957733154E+01,      /* J =  3 */
(PID.TID 0000.0001)      . . .
(PID.TID 0000.0001)                 2.741780662536621E+01,      /* J = 17 */
(PID.TID 0000.0001)                 2.745180892944336E+01,      /* J = 18 */
(PID.TID 0000.0001)                 2.748580074310303E+01,      /* J = 19 */
(PID.TID 0000.0001)                 2.751978206634521E+01,      /* J = 20 */
(PID.TID 0000.0001)                 2.755375289916992E+01,      /* J = 21 */
(PID.TID 0000.0001)                 2.758771419525146E+01,      /* J = 22 */
(PID.TID 0000.0001)      . . .
(PID.TID 0000.0001)                 2.806208515167236E+01,      /* J = 36 */
(PID.TID 0000.0001)                 2.809589099884033E+01,      /* J = 37 */
(PID.TID 0000.0001)                 2.812968635559082E+01,      /* J = 38 */
(PID.TID 0000.0001)                 2.816347122192383E+01,      /* J = 39 */
(PID.TID 0000.0001)                 2.819724559783936E+01,      /* J = 40 */
(PID.TID 0000.0001)                 2.823101043701172E+01,      /* J = 41 */
(PID.TID 0000.0001)      . . .
(PID.TID 0000.0001)                 2.870261096954346E+01,      /* J = 55 */
(PID.TID 0000.0001)                 2.873621845245361E+01,      /* J = 56 */
(PID.TID 0000.0001)                 2.876981449127197E+01,      /* J = 57 */
(PID.TID 0000.0001)                 2.880340003967285E+01,      /* J = 58 */
(PID.TID 0000.0001)                 2.883697605133057E+01,      /* J = 59 */
(PID.TID 0000.0001)                 2.887054157257080E+01,      /* J = 60 */
(PID.TID 0000.0001)      . . .
(PID.TID 0000.0001)                 2.933933925628662E+01,      /* J = 74 */
(PID.TID 0000.0001)                 2.937274551391602E+01,      /* J = 75 */
(PID.TID 0000.0001)                 2.940614032745361E+01       /* J = 76 */
(PID.TID 0000.0001)     ;
(PID.TID 0000.0001) rcoord = /* P-point R coordinate (  units of r ) */
(PID.TID 0000.0001)                -2.500000000000000E+00,      /* K =  1 */
(PID.TID 0000.0001)                -7.500000000000000E+00,      /* K =  2 */
(PID.TID 0000.0001)                -1.250000000000000E+01,      /* K =  3 */
(PID.TID 0000.0001)                -1.750000000000000E+01,      /* K =  4 */
(PID.TID 0000.0001)                -2.250000000000000E+01,      /* K =  5 */
(PID.TID 0000.0001)                -2.750000000000000E+01,      /* K =  6 */
(PID.TID 0000.0001)                -3.250000000000000E+01,      /* K =  7 */
(PID.TID 0000.0001)                -3.750000000000000E+01,      /* K =  8 */
(PID.TID 0000.0001)                -4.250000000000000E+01,      /* K =  9 */
(PID.TID 0000.0001)                -4.750000000000000E+01,      /* K = 10 */
(PID.TID 0000.0001)                -5.250000000000000E+01,      /* K = 11 */
(PID.TID 0000.0001)                -5.750000000000000E+01,      /* K = 12 */
(PID.TID 0000.0001)                -6.250000000000000E+01,      /* K = 13 */
(PID.TID 0000.0001)                -6.750000000000000E+01,      /* K = 14 */
(PID.TID 0000.0001)                -7.250000000000000E+01,      /* K = 15 */
(PID.TID 0000.0001)                -7.750500000000000E+01,      /* K = 16 */
(PID.TID 0000.0001)                -8.251500000000000E+01,      /* K = 17 */
(PID.TID 0000.0001)                -8.753000000000000E+01,      /* K = 18 */
(PID.TID 0000.0001)                -9.256000000000000E+01,      /* K = 19 */
(PID.TID 0000.0001)                -9.761500000000001E+01,      /* K = 20 */
(PID.TID 0000.0001)                -1.027100000000000E+02,      /* K = 21 */
(PID.TID 0000.0001)                -1.078700000000000E+02,      /* K = 22 */
(PID.TID 0000.0001)                -1.131250000000000E+02,      /* K = 23 */
(PID.TID 0000.0001)                -1.185250000000000E+02,      /* K = 24 */
(PID.TID 0000.0001)                -1.241300000000000E+02,      /* K = 25 */
(PID.TID 0000.0001)                -1.300100000000000E+02,      /* K = 26 */
(PID.TID 0000.0001)                -1.362550000000000E+02,      /* K = 27 */
(PID.TID 0000.0001)                -1.429650000000000E+02,      /* K = 28 */
(PID.TID 0000.0001)                -1.502600000000000E+02,      /* K = 29 */
(PID.TID 0000.0001)                -1.582800000000000E+02,      /* K = 30 */
(PID.TID 0000.0001)                -1.671700000000000E+02,      /* K = 31 */
(PID.TID 0000.0001)                -1.770800000000000E+02,      /* K = 32 */
(PID.TID 0000.0001)                -1.881700000000000E+02,      /* K = 33 */
(PID.TID 0000.0001)                -2.005950000000000E+02,      /* K = 34 */
(PID.TID 0000.0001)                -2.145100000000000E+02,      /* K = 35 */
(PID.TID 0000.0001)                -2.300600000000000E+02,      /* K = 36 */
(PID.TID 0000.0001)                -2.473800000000000E+02,      /* K = 37 */
(PID.TID 0000.0001)                -2.665900000000000E+02,      /* K = 38 */
(PID.TID 0000.0001)                -2.877850000000000E+02,      /* K = 39 */
(PID.TID 0000.0001)                -3.110350000000000E+02,      /* K = 40 */
(PID.TID 0000.0001)                -3.363950000000000E+02,      /* K = 41 */
(PID.TID 0000.0001)                -3.638950000000000E+02,      /* K = 42 */
(PID.TID 0000.0001)                -3.935350000000000E+02,      /* K = 43 */
(PID.TID 0000.0001)                -4.252850000000000E+02,      /* K = 44 */
(PID.TID 0000.0001)                -4.590900000000000E+02,      /* K = 45 */
(PID.TID 0000.0001)                -4.948800000000001E+02,      /* K = 46 */
(PID.TID 0000.0001)                -5.325600000000001E+02,      /* K = 47 */
(PID.TID 0000.0001)                -5.720100000000001E+02,      /* K = 48 */
(PID.TID 0000.0001)                -6.130950000000001E+02,      /* K = 49 */
(PID.TID 0000.0001)                -6.556700000000002E+02,      /* K = 50 */
(PID.TID 0000.0001)                -6.995800000000002E+02,      /* K = 51 */
(PID.TID 0000.0001)                -7.446700000000002E+02,      /* K = 52 */
(PID.TID 0000.0001)                -7.907800000000002E+02,      /* K = 53 */
(PID.TID 0000.0001)                -8.377600000000002E+02,      /* K = 54 */
(PID.TID 0000.0001)                -8.854650000000003E+02,      /* K = 55 */
(PID.TID 0000.0001)                -9.337550000000002E+02,      /* K = 56 */
(PID.TID 0000.0001)                -9.825100000000002E+02,      /* K = 57 */
(PID.TID 0000.0001)                -1.031635000000000E+03,      /* K = 58 */
(PID.TID 0000.0001)                -1.081045000000000E+03,      /* K = 59 */
(PID.TID 0000.0001)                -1.130670000000000E+03,      /* K = 60 */
(PID.TID 0000.0001)                -1.180480000000000E+03,      /* K = 61 */
(PID.TID 0000.0001)                -1.230485000000000E+03,      /* K = 62 */
(PID.TID 0000.0001)                -1.280745000000000E+03,      /* K = 63 */
(PID.TID 0000.0001)                -1.331410000000000E+03,      /* K = 64 */
(PID.TID 0000.0001)                -1.382715000000000E+03,      /* K = 65 */
(PID.TID 0000.0001)                -1.434995000000000E+03,      /* K = 66 */
(PID.TID 0000.0001)                -1.488700000000000E+03,      /* K = 67 */
(PID.TID 0000.0001)                -1.544365000000000E+03,      /* K = 68 */
(PID.TID 0000.0001)                -1.602595000000000E+03,      /* K = 69 */
(PID.TID 0000.0001)                -1.664010000000000E+03,      /* K = 70 */
(PID.TID 0000.0001)                -1.729220000000000E+03,      /* K = 71 */
(PID.TID 0000.0001)                -1.798765000000000E+03,      /* K = 72 */
(PID.TID 0000.0001)                -1.873095000000000E+03,      /* K = 73 */
(PID.TID 0000.0001)                -1.952565000000000E+03,      /* K = 74 */
(PID.TID 0000.0001)                -2.037425000000000E+03,      /* K = 75 */
(PID.TID 0000.0001)                -2.127840000000000E+03,      /* K = 76 */
(PID.TID 0000.0001)                -2.223905000000000E+03,      /* K = 77 */
(PID.TID 0000.0001)                -2.325680000000000E+03,      /* K = 78 */
(PID.TID 0000.0001)                -2.433190000000001E+03,      /* K = 79 */
(PID.TID 0000.0001)                -2.546440000000001E+03,      /* K = 80 */
(PID.TID 0000.0001)                -2.665435000000000E+03,      /* K = 81 */
(PID.TID 0000.0001)                -2.790185000000000E+03,      /* K = 82 */
(PID.TID 0000.0001)                -2.920690000000001E+03,      /* K = 83 */
(PID.TID 0000.0001)                -3.056940000000001E+03,      /* K = 84 */
(PID.TID 0000.0001)                -3.198935000000000E+03,      /* K = 85 */
(PID.TID 0000.0001)                -3.346685000000000E+03,      /* K = 86 */
(PID.TID 0000.0001)                -3.500190000000001E+03,      /* K = 87 */
(PID.TID 0000.0001)                -3.659440000000001E+03,      /* K = 88 */
(PID.TID 0000.0001)                -3.824435000000000E+03,      /* K = 89 */
(PID.TID 0000.0001)                -3.995185000000000E+03,      /* K = 90 */
(PID.TID 0000.0001)                -4.171690000000001E+03,      /* K = 91 */
(PID.TID 0000.0001)                -4.353940000000001E+03,      /* K = 92 */
(PID.TID 0000.0001)                -4.541935000000000E+03,      /* K = 93 */
(PID.TID 0000.0001)                -4.735685000000000E+03,      /* K = 94 */
(PID.TID 0000.0001)                -4.935190000000001E+03,      /* K = 95 */
(PID.TID 0000.0001)                -5.140440000000001E+03,      /* K = 96 */
(PID.TID 0000.0001)                -5.351435000000000E+03,      /* K = 97 */
(PID.TID 0000.0001)                -5.568185000000000E+03,      /* K = 98 */
(PID.TID 0000.0001)                -5.790690000000001E+03,      /* K = 99 */
(PID.TID 0000.0001)                -6.018940000000001E+03       /* K =100 */
(PID.TID 0000.0001)     ;
(PID.TID 0000.0001) rF =   /* W-Interf. R coordinate (  units of r ) */
(PID.TID 0000.0001)                 0.000000000000000E+00,      /* K =  1 */
(PID.TID 0000.0001)                -5.000000000000000E+00,      /* K =  2 */
(PID.TID 0000.0001)                -1.000000000000000E+01,      /* K =  3 */
(PID.TID 0000.0001)                -1.500000000000000E+01,      /* K =  4 */
(PID.TID 0000.0001)                -2.000000000000000E+01,      /* K =  5 */
(PID.TID 0000.0001)                -2.500000000000000E+01,      /* K =  6 */
(PID.TID 0000.0001)                -3.000000000000000E+01,      /* K =  7 */
(PID.TID 0000.0001)                -3.500000000000000E+01,      /* K =  8 */
(PID.TID 0000.0001)                -4.000000000000000E+01,      /* K =  9 */
(PID.TID 0000.0001)                -4.500000000000000E+01,      /* K = 10 */
(PID.TID 0000.0001)                -5.000000000000000E+01,      /* K = 11 */
(PID.TID 0000.0001)                -5.500000000000000E+01,      /* K = 12 */
(PID.TID 0000.0001)                -6.000000000000000E+01,      /* K = 13 */
(PID.TID 0000.0001)                -6.500000000000000E+01,      /* K = 14 */
(PID.TID 0000.0001)                -7.000000000000000E+01,      /* K = 15 */
(PID.TID 0000.0001)                -7.500000000000000E+01,      /* K = 16 */
(PID.TID 0000.0001)                -8.001000000000001E+01,      /* K = 17 */
(PID.TID 0000.0001)                -8.502000000000001E+01,      /* K = 18 */
(PID.TID 0000.0001)                -9.004000000000001E+01,      /* K = 19 */
(PID.TID 0000.0001)                -9.508000000000001E+01,      /* K = 20 */
(PID.TID 0000.0001)                -1.001500000000000E+02,      /* K = 21 */
(PID.TID 0000.0001)                -1.052700000000000E+02,      /* K = 22 */
(PID.TID 0000.0001)                -1.104700000000000E+02,      /* K = 23 */
(PID.TID 0000.0001)                -1.157800000000000E+02,      /* K = 24 */
(PID.TID 0000.0001)                -1.212700000000000E+02,      /* K = 25 */
(PID.TID 0000.0001)                -1.269900000000000E+02,      /* K = 26 */
(PID.TID 0000.0001)                -1.330300000000000E+02,      /* K = 27 */
(PID.TID 0000.0001)                -1.394800000000000E+02,      /* K = 28 */
(PID.TID 0000.0001)                -1.464500000000000E+02,      /* K = 29 */
(PID.TID 0000.0001)                -1.540700000000000E+02,      /* K = 30 */
(PID.TID 0000.0001)                -1.624900000000000E+02,      /* K = 31 */
(PID.TID 0000.0001)                -1.718500000000000E+02,      /* K = 32 */
(PID.TID 0000.0001)                -1.823100000000000E+02,      /* K = 33 */
(PID.TID 0000.0001)                -1.940300000000000E+02,      /* K = 34 */
(PID.TID 0000.0001)                -2.071600000000000E+02,      /* K = 35 */
(PID.TID 0000.0001)                -2.218600000000000E+02,      /* K = 36 */
(PID.TID 0000.0001)                -2.382600000000000E+02,      /* K = 37 */
(PID.TID 0000.0001)                -2.564999999999999E+02,      /* K = 38 */
(PID.TID 0000.0001)                -2.766799999999999E+02,      /* K = 39 */
(PID.TID 0000.0001)                -2.988899999999999E+02,      /* K = 40 */
(PID.TID 0000.0001)                -3.231799999999999E+02,      /* K = 41 */
(PID.TID 0000.0001)                -3.496100000000000E+02,      /* K = 42 */
(PID.TID 0000.0001)                -3.781799999999999E+02,      /* K = 43 */
(PID.TID 0000.0001)                -4.088899999999999E+02,      /* K = 44 */
(PID.TID 0000.0001)                -4.416799999999999E+02,      /* K = 45 */
(PID.TID 0000.0001)                -4.764999999999999E+02,      /* K = 46 */
(PID.TID 0000.0001)                -5.132600000000000E+02,      /* K = 47 */
(PID.TID 0000.0001)                -5.518600000000000E+02,      /* K = 48 */
(PID.TID 0000.0001)                -5.921600000000000E+02,      /* K = 49 */
(PID.TID 0000.0001)                -6.340300000000000E+02,      /* K = 50 */
(PID.TID 0000.0001)                -6.773099999999999E+02,      /* K = 51 */
(PID.TID 0000.0001)                -7.218499999999999E+02,      /* K = 52 */
(PID.TID 0000.0001)                -7.674899999999999E+02,      /* K = 53 */
(PID.TID 0000.0001)                -8.140699999999999E+02,      /* K = 54 */
(PID.TID 0000.0001)                -8.614499999999999E+02,      /* K = 55 */
(PID.TID 0000.0001)                -9.094799999999999E+02,      /* K = 56 */
(PID.TID 0000.0001)                -9.580299999999999E+02,      /* K = 57 */
(PID.TID 0000.0001)                -1.006990000000000E+03,      /* K = 58 */
(PID.TID 0000.0001)                -1.056280000000000E+03,      /* K = 59 */
(PID.TID 0000.0001)                -1.105810000000000E+03,      /* K = 60 */
(PID.TID 0000.0001)                -1.155530000000000E+03,      /* K = 61 */
(PID.TID 0000.0001)                -1.205430000000000E+03,      /* K = 62 */
(PID.TID 0000.0001)                -1.255540000000000E+03,      /* K = 63 */
(PID.TID 0000.0001)                -1.305950000000000E+03,      /* K = 64 */
(PID.TID 0000.0001)                -1.356870000000000E+03,      /* K = 65 */
(PID.TID 0000.0001)                -1.408560000000000E+03,      /* K = 66 */
(PID.TID 0000.0001)                -1.461430000000000E+03,      /* K = 67 */
(PID.TID 0000.0001)                -1.515970000000000E+03,      /* K = 68 */
(PID.TID 0000.0001)                -1.572760000000000E+03,      /* K = 69 */
(PID.TID 0000.0001)                -1.632430000000000E+03,      /* K = 70 */
(PID.TID 0000.0001)                -1.695590000000000E+03,      /* K = 71 */
(PID.TID 0000.0001)                -1.762850000000000E+03,      /* K = 72 */
(PID.TID 0000.0001)                -1.834680000000000E+03,      /* K = 73 */
(PID.TID 0000.0001)                -1.911510000000000E+03,      /* K = 74 */
(PID.TID 0000.0001)                -1.993620000000000E+03,      /* K = 75 */
(PID.TID 0000.0001)                -2.081230000000000E+03,      /* K = 76 */
(PID.TID 0000.0001)                -2.174450000000000E+03,      /* K = 77 */
(PID.TID 0000.0001)                -2.273360000000000E+03,      /* K = 78 */
(PID.TID 0000.0001)                -2.378000000000000E+03,      /* K = 79 */
(PID.TID 0000.0001)                -2.488380000000000E+03,      /* K = 80 */
(PID.TID 0000.0001)                -2.604500000000000E+03,      /* K = 81 */
(PID.TID 0000.0001)                -2.726369999999999E+03,      /* K = 82 */
(PID.TID 0000.0001)                -2.854000000000000E+03,      /* K = 83 */
(PID.TID 0000.0001)                -2.987380000000000E+03,      /* K = 84 */
(PID.TID 0000.0001)                -3.126500000000000E+03,      /* K = 85 */
(PID.TID 0000.0001)                -3.271369999999999E+03,      /* K = 86 */
(PID.TID 0000.0001)                -3.422000000000000E+03,      /* K = 87 */
(PID.TID 0000.0001)                -3.578380000000000E+03,      /* K = 88 */
(PID.TID 0000.0001)                -3.740500000000000E+03,      /* K = 89 */
(PID.TID 0000.0001)                -3.908369999999999E+03,      /* K = 90 */
(PID.TID 0000.0001)                -4.082000000000000E+03,      /* K = 91 */
(PID.TID 0000.0001)                -4.261379999999999E+03,      /* K = 92 */
(PID.TID 0000.0001)                -4.446499999999999E+03,      /* K = 93 */
(PID.TID 0000.0001)                -4.637369999999999E+03,      /* K = 94 */
(PID.TID 0000.0001)                -4.833999999999999E+03,      /* K = 95 */
(PID.TID 0000.0001)                -5.036379999999999E+03,      /* K = 96 */
(PID.TID 0000.0001)                -5.244499999999999E+03,      /* K = 97 */
(PID.TID 0000.0001)                -5.458369999999999E+03,      /* K = 98 */
(PID.TID 0000.0001)                -5.677999999999999E+03,      /* K = 99 */
(PID.TID 0000.0001)                -5.903379999999999E+03,      /* K =100 */
(PID.TID 0000.0001)                -6.134499999999999E+03       /* K =101 */
(PID.TID 0000.0001)     ;
(PID.TID 0000.0001) deepFacC = /* deep-model grid factor @ cell-Center (-) */
(PID.TID 0000.0001)   100 @  1.000000000000000E+00              /* K =  1:100 */
(PID.TID 0000.0001)     ;
(PID.TID 0000.0001) deepFacF = /* deep-model grid factor @ W-Interface (-) */
(PID.TID 0000.0001)   101 @  1.000000000000000E+00              /* K =  1:101 */
(PID.TID 0000.0001)     ;
(PID.TID 0000.0001) rVel2wUnit = /* convert units: rVel -> wSpeed (=1 if z-coord)*/
(PID.TID 0000.0001)   101 @  1.000000000000000E+00              /* K =  1:101 */
(PID.TID 0000.0001)     ;
(PID.TID 0000.0001) wUnit2rVel = /* convert units: wSpeed -> rVel (=1 if z-coord)*/
(PID.TID 0000.0001)   101 @  1.000000000000000E+00              /* K =  1:101 */
(PID.TID 0000.0001)     ;
(PID.TID 0000.0001) dBdrRef = /* Vertical grad. of reference buoyancy [(m/s/r)^2] */
(PID.TID 0000.0001)     5 @  0.000000000000000E+00,             /* K =  1:  5 */
(PID.TID 0000.0001)                 9.694282843778342E-06,      /* K =  6 */
(PID.TID 0000.0001)                 2.426513223807763E-05,      /* K =  7 */
(PID.TID 0000.0001)                 1.452975530153167E-05,      /* K =  8 */
(PID.TID 0000.0001)                 9.681498625854328E-06,      /* K =  9 */
(PID.TID 0000.0001)                 4.842099844624020E-05,      /* K = 10 */
(PID.TID 0000.0001)                 6.280856330023614E-05,      /* K = 11 */
(PID.TID 0000.0001)                 8.185617076656702E-05,      /* K = 12 */
(PID.TID 0000.0001)                 1.295252644691406E-04,      /* K = 13 */
(PID.TID 0000.0001)                 1.095351351384002E-04,      /* K = 14 */
(PID.TID 0000.0001)                 1.329169312007239E-04,      /* K = 15 */
(PID.TID 0000.0001)                 1.367041979360881E-04,      /* K = 16 */
(PID.TID 0000.0001)                 1.211727126593573E-04,      /* K = 17 */
(PID.TID 0000.0001)                 1.302265701121417E-04,      /* K = 18 */
(PID.TID 0000.0001)                 1.190854314588815E-04,      /* K = 19 */
(PID.TID 0000.0001)                 1.132023267377615E-04,      /* K = 20 */
(PID.TID 0000.0001)                 1.071632265654582E-04,      /* K = 21 */
(PID.TID 0000.0001)                 1.051393672457803E-04,      /* K = 22 */
(PID.TID 0000.0001)                 1.025752720636568E-04,      /* K = 23 */
(PID.TID 0000.0001)                 9.917395824143918E-05,      /* K = 24 */
(PID.TID 0000.0001)                 9.104030067387556E-05,      /* K = 25 */
(PID.TID 0000.0001)                 8.624441260795840E-05,      /* K = 26 */
(PID.TID 0000.0001)                 8.413036901537412E-05,      /* K = 27 */
(PID.TID 0000.0001)                 6.366728012651445E-05,      /* K = 28 */
(PID.TID 0000.0001)                 5.812092618380799E-05,      /* K = 29 */
(PID.TID 0000.0001)                 5.507951137016039E-05,      /* K = 30 */
(PID.TID 0000.0001)                 4.695510592930360E-05,      /* K = 31 */
(PID.TID 0000.0001)                 4.596409715692217E-05,      /* K = 32 */
(PID.TID 0000.0001)                 4.072795425761271E-05,      /* K = 33 */
(PID.TID 0000.0001)                 3.175298295526856E-05,      /* K = 34 */
(PID.TID 0000.0001)                 3.093452381022950E-05,      /* K = 35 */
(PID.TID 0000.0001)                 2.864003459600112E-05,      /* K = 36 */
(PID.TID 0000.0001)                 2.767315329576147E-05,      /* K = 37 */
(PID.TID 0000.0001)                 2.463000191580109E-05,      /* K = 38 */
(PID.TID 0000.0001)                 2.475053767167416E-05,      /* K = 39 */
(PID.TID 0000.0001)                 1.906506350221241E-05,      /* K = 40 */
(PID.TID 0000.0001)                 1.865582618722828E-05,      /* K = 41 */
(PID.TID 0000.0001)                 1.823366094760355E-05,      /* K = 42 */
(PID.TID 0000.0001)                 1.471037885515795E-05,      /* K = 43 */
(PID.TID 0000.0001)                 1.630603945735049E-05,      /* K = 44 */
(PID.TID 0000.0001)                 1.384745352787863E-05,      /* K = 45 */
(PID.TID 0000.0001)                 1.226594411185851E-05,      /* K = 46 */
(PID.TID 0000.0001)                 1.225310460290910E-05,      /* K = 47 */
(PID.TID 0000.0001)                 1.223011113144029E-05,      /* K = 48 */
(PID.TID 0000.0001)                 1.061638239990844E-05,      /* K = 49 */
(PID.TID 0000.0001)                 1.070650633014499E-05,      /* K = 50 */
(PID.TID 0000.0001)                 9.357472423340062E-06,      /* K = 51 */
(PID.TID 0000.0001)                 9.812756875994976E-06,      /* K = 52 */
(PID.TID 0000.0001)                 9.364680965538371E-06,      /* K = 53 */
(PID.TID 0000.0001)                 6.430982300518885E-06,      /* K = 54 */
(PID.TID 0000.0001)                 8.970058816087760E-06,      /* K = 55 */
(PID.TID 0000.0001)                 8.398462027768182E-06,      /* K = 56 */
(PID.TID 0000.0001)                 7.294531901104187E-06,      /* K = 57 */
(PID.TID 0000.0001)                 8.642565592484861E-06,      /* K = 58 */
(PID.TID 0000.0001)                 6.405731826441176E-06,      /* K = 59 */
(PID.TID 0000.0001)                 8.743452988220992E-06,      /* K = 60 */
(PID.TID 0000.0001)                 6.590306221026928E-06,      /* K = 61 */
(PID.TID 0000.0001)                 7.462277694900194E-06,      /* K = 62 */
(PID.TID 0000.0001)                 5.625478499738029E-06,      /* K = 63 */
(PID.TID 0000.0001)                 6.494457456351866E-06,      /* K = 64 */
(PID.TID 0000.0001)                 5.872364624284492E-06,      /* K = 65 */
(PID.TID 0000.0001)                 5.495436518643386E-06,      /* K = 66 */
(PID.TID 0000.0001)                 5.094601592541214E-06,      /* K = 67 */
(PID.TID 0000.0001)                 4.437172619322077E-06,      /* K = 68 */
(PID.TID 0000.0001)                 4.016940542409763E-06,      /* K = 69 */
(PID.TID 0000.0001)                 4.028908121728164E-06,      /* K = 70 */
(PID.TID 0000.0001)                 2.246388502686123E-06,      /* K = 71 */
(PID.TID 0000.0001)                 2.998142894531076E-06,      /* K = 72 */
(PID.TID 0000.0001)                 2.815413573924730E-06,      /* K = 73 */
(PID.TID 0000.0001)                 2.814329879263964E-06,      /* K = 74 */
(PID.TID 0000.0001)                 2.327158902006369E-06,      /* K = 75 */
(PID.TID 0000.0001)                 1.523559191918705E-06,      /* K = 76 */
(PID.TID 0000.0001)                 2.223754279938488E-06,      /* K = 77 */
(PID.TID 0000.0001)                 1.243572598777220E-06,      /* K = 78 */
(PID.TID 0000.0001)                 1.884009398486976E-06,      /* K = 79 */
(PID.TID 0000.0001)                 1.146309977456730E-06,      /* K = 80 */
(PID.TID 0000.0001)                 9.836409573498765E-07,      /* K = 81 */
(PID.TID 0000.0001)                 1.666564082034753E-06,      /* K = 82 */
(PID.TID 0000.0001)                 8.096789666921265E-07,      /* K = 83 */
(PID.TID 0000.0001)                 9.015806361848934E-07,      /* K = 84 */
(PID.TID 0000.0001)                 9.899996711216439E-07,      /* K = 85 */
(PID.TID 0000.0001)                 1.360959195968683E-06,      /* K = 86 */
(PID.TID 0000.0001)                 3.633635105266278E-07,      /* K = 87 */
(PID.TID 0000.0001)                 7.257552276248978E-07,      /* K = 88 */
(PID.TID 0000.0001)                 8.165089567519712E-07,      /* K = 89 */
(PID.TID 0000.0001)                 7.043987264958734E-07,      /* K = 90 */
(PID.TID 0000.0001)                 6.956983617110328E-07,      /* K = 91 */
(PID.TID 0000.0001)                 6.880703959048398E-07,      /* K = 92 */
(PID.TID 0000.0001)                 6.813676413074075E-07,      /* K = 93 */
(PID.TID 0000.0001)                 6.754628223828996E-07,      /* K = 94 */
(PID.TID 0000.0001)                 3.049729588883796E-07,      /* K = 95 */
(PID.TID 0000.0001)                 6.657955553385863E-07,      /* K = 96 */
(PID.TID 0000.0001)                 5.675084375793845E-07,      /* K = 97 */
(PID.TID 0000.0001)                 3.767262833194376E-07,      /* K = 98 */
(PID.TID 0000.0001)                 2.816808424830599E-07,      /* K = 99 */
(PID.TID 0000.0001)                 1.873891169846885E-07       /* K =100 */
(PID.TID 0000.0001)     ;
(PID.TID 0000.0001) rotateGrid = /* use rotated grid ( True/False ) */
(PID.TID 0000.0001)                   F
(PID.TID 0000.0001)     ;
(PID.TID 0000.0001) phiEuler = /* Euler angle, rotation about original z-coordinate [rad] */
(PID.TID 0000.0001)                 0.000000000000000E+00
(PID.TID 0000.0001)     ;
(PID.TID 0000.0001) thetaEuler = /* Euler angle, rotation about new x-coordinate [rad] */
(PID.TID 0000.0001)                 0.000000000000000E+00
(PID.TID 0000.0001)     ;
(PID.TID 0000.0001) psiEuler = /* Euler angle, rotation about new z-coordinate [rad] */
(PID.TID 0000.0001)                 0.000000000000000E+00
(PID.TID 0000.0001)     ;
(PID.TID 0000.0001) dxF =  /* dxF(:,1,:,1) ( units: m ) */
(PID.TID 0000.0001)   121 @  4.132168078704865E+03              /* I =  1:121 */
(PID.TID 0000.0001)     ;
(PID.TID 0000.0001) dxF =  /* dxF(1,:,1,:) ( units: m ) */
(PID.TID 0000.0001)                 4.132168078704865E+03,      /* J =  1 */
(PID.TID 0000.0001)                 4.130918776160077E+03,      /* J =  2 */
(PID.TID 0000.0001)                 4.129668354115694E+03,      /* J =  3 */
(PID.TID 0000.0001)      . . .
(PID.TID 0000.0001)                 4.112048568245555E+03,      /* J = 17 */
(PID.TID 0000.0001)                 4.110781948379812E+03,      /* J = 18 */
(PID.TID 0000.0001)                 4.109514272204890E+03,      /* J = 19 */
(PID.TID 0000.0001)                 4.108245541506343E+03,      /* J = 20 */
(PID.TID 0000.0001)                 4.106975758068988E+03,      /* J = 21 */
(PID.TID 0000.0001)                 4.105704887969090E+03,      /* J = 22 */
(PID.TID 0000.0001)      . . .
(PID.TID 0000.0001)                 4.087802801109522E+03,      /* J = 36 */
(PID.TID 0000.0001)                 4.086516305844601E+03,      /* J = 37 */
(PID.TID 0000.0001)                 4.085228787830029E+03,      /* J = 38 */
(PID.TID 0000.0001)                 4.083940248837513E+03,      /* J = 39 */
(PID.TID 0000.0001)                 4.082650690638008E+03,      /* J = 40 */
(PID.TID 0000.0001)                 4.081360078528878E+03,      /* J = 41 */
(PID.TID 0000.0001)      . . .
(PID.TID 0000.0001)                 4.063185881469037E+03,      /* J = 55 */
(PID.TID 0000.0001)                 4.061880218763309E+03,      /* J = 56 */
(PID.TID 0000.0001)                 4.060573603871915E+03,      /* J = 57 */
(PID.TID 0000.0001)                 4.059266001521358E+03,      /* J = 58 */
(PID.TID 0000.0001)                 4.057957376278871E+03,      /* J = 59 */
(PID.TID 0000.0001)                 4.056647767010304E+03,      /* J = 60 */
(PID.TID 0000.0001)      . . .
(PID.TID 0000.0001)                 4.038211613731900E+03,      /* J = 74 */
(PID.TID 0000.0001)                 4.036887530622555E+03,      /* J = 75 */
(PID.TID 0000.0001)                 4.035562529488617E+03       /* J = 76 */
(PID.TID 0000.0001)     ;
(PID.TID 0000.0001) dyF =  /* dyF(:,1,:,1) ( units: m ) */
(PID.TID 0000.0001)   121 @  3.798951025203276E+03              /* I =  1:121 */
(PID.TID 0000.0001)     ;
(PID.TID 0000.0001) dyF =  /* dyF(1,:,1,:) ( units: m ) */
(PID.TID 0000.0001)                 3.798951025203276E+03,      /* J =  1 */
(PID.TID 0000.0001)                 3.797890754194288E+03,      /* J =  2 */
(PID.TID 0000.0001)                 3.796830483185300E+03,      /* J =  3 */
(PID.TID 0000.0001)      . . .
(PID.TID 0000.0001)                 3.780926418050483E+03,      /* J = 17 */
(PID.TID 0000.0001)                 3.779654092839698E+03,      /* J = 18 */
(PID.TID 0000.0001)                 3.778593821830710E+03,      /* J = 19 */
(PID.TID 0000.0001)                 3.777321496619924E+03,      /* J = 20 */
(PID.TID 0000.0001)                 3.776261225610937E+03,      /* J = 21 */
(PID.TID 0000.0001)                 3.775200954601949E+03,      /* J = 22 */
(PID.TID 0000.0001)      . . .
(PID.TID 0000.0001)                 3.759084835265334E+03,      /* J = 36 */
(PID.TID 0000.0001)                 3.757812510054549E+03,      /* J = 37 */
(PID.TID 0000.0001)                 3.756752239045562E+03,      /* J = 38 */
(PID.TID 0000.0001)                 3.755479913834776E+03,      /* J = 39 */
(PID.TID 0000.0001)                 3.754419642825788E+03,      /* J = 40 */
(PID.TID 0000.0001)                 3.753359371816800E+03,      /* J = 41 */
(PID.TID 0000.0001)      . . .
(PID.TID 0000.0001)                 3.737031198278388E+03,      /* J = 55 */
(PID.TID 0000.0001)                 3.735758873067603E+03,      /* J = 56 */
(PID.TID 0000.0001)                 3.734486547856818E+03,      /* J = 57 */
(PID.TID 0000.0001)                 3.733426276847830E+03,      /* J = 58 */
(PID.TID 0000.0001)                 3.732366005838842E+03,      /* J = 59 */
(PID.TID 0000.0001)                 3.731093680628057E+03,      /* J = 60 */
(PID.TID 0000.0001)      . . .
(PID.TID 0000.0001)                 3.714553452887847E+03,      /* J = 74 */
(PID.TID 0000.0001)                 3.713493181878859E+03,      /* J = 75 */
(PID.TID 0000.0001)                 3.712008802466276E+03       /* J = 76 */
(PID.TID 0000.0001)     ;
(PID.TID 0000.0001) dxG =  /* dxG(:,1,:,1) ( units: m ) */
(PID.TID 0000.0001)   121 @  4.132792266102490E+03              /* I =  1:121 */
(PID.TID 0000.0001)     ;
(PID.TID 0000.0001) dxG =  /* dxG(1,:,1,:) ( units: m ) */
(PID.TID 0000.0001)                 4.132792266102490E+03,      /* J =  1 */
(PID.TID 0000.0001)                 4.131543523884096E+03,      /* J =  2 */
(PID.TID 0000.0001)                 4.130293661329000E+03,      /* J =  3 */
(PID.TID 0000.0001)      . . .
(PID.TID 0000.0001)                 4.112681441584010E+03,      /* J = 17 */
(PID.TID 0000.0001)                 4.111415332734301E+03,      /* J = 18 */
(PID.TID 0000.0001)                 4.110148202207719E+03,      /* J = 19 */
(PID.TID 0000.0001)                 4.108879980698939E+03,      /* J = 20 */
(PID.TID 0000.0001)                 4.107610741165563E+03,      /* J = 21 */
(PID.TID 0000.0001)                 4.106340414138508E+03,      /* J = 22 */
(PID.TID 0000.0001)      . . .
(PID.TID 0000.0001)                 4.088445623873145E+03,      /* J = 36 */
(PID.TID 0000.0001)                 4.087159622456270E+03,      /* J = 37 */
(PID.TID 0000.0001)                 4.085872633696104E+03,      /* J = 38 */
(PID.TID 0000.0001)                 4.084584586739682E+03,      /* J = 39 */
(PID.TID 0000.0001)                 4.083295556063611E+03,      /* J = 40 */
(PID.TID 0000.0001)                 4.082005470653015E+03,      /* J = 41 */
(PID.TID 0000.0001)      . . .
(PID.TID 0000.0001)                 4.063838299649349E+03,      /* J = 55 */
(PID.TID 0000.0001)                 4.062533113680792E+03,      /* J = 56 */
(PID.TID 0000.0001)                 4.061226974588177E+03,      /* J = 57 */
(PID.TID 0000.0001)                 4.059919884248135E+03,      /* J = 58 */
(PID.TID 0000.0001)                 4.058611770197446E+03,      /* J = 59 */
(PID.TID 0000.0001)                 4.057302634073451E+03,      /* J = 60 */
(PID.TID 0000.0001)      . . .
(PID.TID 0000.0001)                 4.038873234925049E+03,      /* J = 74 */
(PID.TID 0000.0001)                 4.037549649246945E+03,      /* J = 75 */
(PID.TID 0000.0001)                 4.036225069014803E+03       /* J = 76 */
(PID.TID 0000.0001)     ;
(PID.TID 0000.0001) dyG =  /* dyG(:,1,:,1) ( units: m ) */
(PID.TID 0000.0001)   121 @  3.798951025203276E+03              /* I =  1:121 */
(PID.TID 0000.0001)     ;
(PID.TID 0000.0001) dyG =  /* dyG(1,:,1,:) ( units: m ) */
(PID.TID 0000.0001)                 3.798951025203276E+03,      /* J =  1 */
(PID.TID 0000.0001)                 3.797890754194288E+03,      /* J =  2 */
(PID.TID 0000.0001)                 3.796830483185300E+03,      /* J =  3 */
(PID.TID 0000.0001)      . . .
(PID.TID 0000.0001)                 3.780926418050483E+03,      /* J = 17 */
(PID.TID 0000.0001)                 3.779654092839698E+03,      /* J = 18 */
(PID.TID 0000.0001)                 3.778593821830710E+03,      /* J = 19 */
(PID.TID 0000.0001)                 3.777321496619924E+03,      /* J = 20 */
(PID.TID 0000.0001)                 3.776261225610937E+03,      /* J = 21 */
(PID.TID 0000.0001)                 3.775200954601949E+03,      /* J = 22 */
(PID.TID 0000.0001)      . . .
(PID.TID 0000.0001)                 3.759084835265334E+03,      /* J = 36 */
(PID.TID 0000.0001)                 3.757812510054549E+03,      /* J = 37 */
(PID.TID 0000.0001)                 3.756752239045562E+03,      /* J = 38 */
(PID.TID 0000.0001)                 3.755479913834776E+03,      /* J = 39 */
(PID.TID 0000.0001)                 3.754419642825788E+03,      /* J = 40 */
(PID.TID 0000.0001)                 3.753359371816800E+03,      /* J = 41 */
(PID.TID 0000.0001)      . . .
(PID.TID 0000.0001)                 3.737031198278388E+03,      /* J = 55 */
(PID.TID 0000.0001)                 3.735758873067603E+03,      /* J = 56 */
(PID.TID 0000.0001)                 3.734486547856818E+03,      /* J = 57 */
(PID.TID 0000.0001)                 3.733426276847830E+03,      /* J = 58 */
(PID.TID 0000.0001)                 3.732366005838842E+03,      /* J = 59 */
(PID.TID 0000.0001)                 3.731093680628057E+03,      /* J = 60 */
(PID.TID 0000.0001)      . . .
(PID.TID 0000.0001)                 3.714553452887847E+03,      /* J = 74 */
(PID.TID 0000.0001)                 3.713493181878859E+03,      /* J = 75 */
(PID.TID 0000.0001)                 3.712008802466276E+03       /* J = 76 */
(PID.TID 0000.0001)     ;
(PID.TID 0000.0001) dxC =  /* dxC(:,1,:,1) ( units: m ) */
(PID.TID 0000.0001)   121 @  4.132168078704865E+03              /* I =  1:121 */
(PID.TID 0000.0001)     ;
(PID.TID 0000.0001) dxC =  /* dxC(1,:,1,:) ( units: m ) */
(PID.TID 0000.0001)                 4.132168078704865E+03,      /* J =  1 */
(PID.TID 0000.0001)                 4.130918776160077E+03,      /* J =  2 */
(PID.TID 0000.0001)                 4.129668354115694E+03,      /* J =  3 */
(PID.TID 0000.0001)      . . .
(PID.TID 0000.0001)                 4.112048568245555E+03,      /* J = 17 */
(PID.TID 0000.0001)                 4.110781948379812E+03,      /* J = 18 */
(PID.TID 0000.0001)                 4.109514272204890E+03,      /* J = 19 */
(PID.TID 0000.0001)                 4.108245541506343E+03,      /* J = 20 */
(PID.TID 0000.0001)                 4.106975758068988E+03,      /* J = 21 */
(PID.TID 0000.0001)                 4.105704887969090E+03,      /* J = 22 */
(PID.TID 0000.0001)      . . .
(PID.TID 0000.0001)                 4.087802801109522E+03,      /* J = 36 */
(PID.TID 0000.0001)                 4.086516305844601E+03,      /* J = 37 */
(PID.TID 0000.0001)                 4.085228787830029E+03,      /* J = 38 */
(PID.TID 0000.0001)                 4.083940248837513E+03,      /* J = 39 */
(PID.TID 0000.0001)                 4.082650690638008E+03,      /* J = 40 */
(PID.TID 0000.0001)                 4.081360078528878E+03,      /* J = 41 */
(PID.TID 0000.0001)      . . .
(PID.TID 0000.0001)                 4.063185881469037E+03,      /* J = 55 */
(PID.TID 0000.0001)                 4.061880218763309E+03,      /* J = 56 */
(PID.TID 0000.0001)                 4.060573603871915E+03,      /* J = 57 */
(PID.TID 0000.0001)                 4.059266001521358E+03,      /* J = 58 */
(PID.TID 0000.0001)                 4.057957376278871E+03,      /* J = 59 */
(PID.TID 0000.0001)                 4.056647767010304E+03,      /* J = 60 */
(PID.TID 0000.0001)      . . .
(PID.TID 0000.0001)                 4.038211613731900E+03,      /* J = 74 */
(PID.TID 0000.0001)                 4.036887530622555E+03,      /* J = 75 */
(PID.TID 0000.0001)                 4.035562529488617E+03       /* J = 76 */
(PID.TID 0000.0001)     ;
(PID.TID 0000.0001) dyC =  /* dyC(:,1,:,1) ( units: m ) */
(PID.TID 0000.0001)   121 @  3.463587305060435E+03              /* I =  1:121 */
(PID.TID 0000.0001)     ;
(PID.TID 0000.0001) dyC =  /* dyC(1,:,1,:) ( units: m ) */
(PID.TID 0000.0001)                 3.463587305060435E+03,      /* J =  1 */
(PID.TID 0000.0001)                 3.798420889698782E+03,      /* J =  2 */
(PID.TID 0000.0001)                 3.797360618689794E+03,      /* J =  3 */
(PID.TID 0000.0001)      . . .
(PID.TID 0000.0001)                 3.781456553554977E+03,      /* J = 17 */
(PID.TID 0000.0001)                 3.780290255445090E+03,      /* J = 18 */
(PID.TID 0000.0001)                 3.779123957335204E+03,      /* J = 19 */
(PID.TID 0000.0001)                 3.777957659225317E+03,      /* J = 20 */
(PID.TID 0000.0001)                 3.776791361115431E+03,      /* J = 21 */
(PID.TID 0000.0001)                 3.775731090106443E+03,      /* J = 22 */
(PID.TID 0000.0001)      . . .
(PID.TID 0000.0001)                 3.759614970769828E+03,      /* J = 36 */
(PID.TID 0000.0001)                 3.758448672659942E+03,      /* J = 37 */
(PID.TID 0000.0001)                 3.757282374550055E+03,      /* J = 38 */
(PID.TID 0000.0001)                 3.756116076440168E+03,      /* J = 39 */
(PID.TID 0000.0001)                 3.754949778330282E+03,      /* J = 40 */
(PID.TID 0000.0001)                 3.753889507321294E+03,      /* J = 41 */
(PID.TID 0000.0001)      . . .
(PID.TID 0000.0001)                 3.737561333782882E+03,      /* J = 55 */
(PID.TID 0000.0001)                 3.736395035672996E+03,      /* J = 56 */
(PID.TID 0000.0001)                 3.735122710462210E+03,      /* J = 57 */
(PID.TID 0000.0001)                 3.733956412352324E+03,      /* J = 58 */
(PID.TID 0000.0001)                 3.732896141343336E+03,      /* J = 59 */
(PID.TID 0000.0001)                 3.731729843233449E+03,      /* J = 60 */
(PID.TID 0000.0001)      . . .
(PID.TID 0000.0001)                 3.715189615493240E+03,      /* J = 74 */
(PID.TID 0000.0001)                 3.714023317383353E+03,      /* J = 75 */
(PID.TID 0000.0001)                 3.712750992172568E+03       /* J = 76 */
(PID.TID 0000.0001)     ;
(PID.TID 0000.0001) dxV =  /* dxV(:,1,:,1) ( units: m ) */
(PID.TID 0000.0001)   121 @  4.132792266102490E+03              /* I =  1:121 */
(PID.TID 0000.0001)     ;
(PID.TID 0000.0001) dxV =  /* dxV(1,:,1,:) ( units: m ) */
(PID.TID 0000.0001)                 4.132792266102490E+03,      /* J =  1 */
(PID.TID 0000.0001)                 4.131543523884096E+03,      /* J =  2 */
(PID.TID 0000.0001)                 4.130293661329000E+03,      /* J =  3 */
(PID.TID 0000.0001)      . . .
(PID.TID 0000.0001)                 4.112681441584010E+03,      /* J = 17 */
(PID.TID 0000.0001)                 4.111415332734301E+03,      /* J = 18 */
(PID.TID 0000.0001)                 4.110148202207719E+03,      /* J = 19 */
(PID.TID 0000.0001)                 4.108879980698939E+03,      /* J = 20 */
(PID.TID 0000.0001)                 4.107610741165563E+03,      /* J = 21 */
(PID.TID 0000.0001)                 4.106340414138508E+03,      /* J = 22 */
(PID.TID 0000.0001)      . . .
(PID.TID 0000.0001)                 4.088445623873145E+03,      /* J = 36 */
(PID.TID 0000.0001)                 4.087159622456270E+03,      /* J = 37 */
(PID.TID 0000.0001)                 4.085872633696104E+03,      /* J = 38 */
(PID.TID 0000.0001)                 4.084584586739682E+03,      /* J = 39 */
(PID.TID 0000.0001)                 4.083295556063611E+03,      /* J = 40 */
(PID.TID 0000.0001)                 4.082005470653015E+03,      /* J = 41 */
(PID.TID 0000.0001)      . . .
(PID.TID 0000.0001)                 4.063838299649349E+03,      /* J = 55 */
(PID.TID 0000.0001)                 4.062533113680792E+03,      /* J = 56 */
(PID.TID 0000.0001)                 4.061226974588177E+03,      /* J = 57 */
(PID.TID 0000.0001)                 4.059919884248135E+03,      /* J = 58 */
(PID.TID 0000.0001)                 4.058611770197446E+03,      /* J = 59 */
(PID.TID 0000.0001)                 4.057302634073451E+03,      /* J = 60 */
(PID.TID 0000.0001)      . . .
(PID.TID 0000.0001)                 4.038873234925049E+03,      /* J = 74 */
(PID.TID 0000.0001)                 4.037549649246945E+03,      /* J = 75 */
(PID.TID 0000.0001)                 4.036225069014803E+03       /* J = 76 */
(PID.TID 0000.0001)     ;
(PID.TID 0000.0001) dyU =  /* dyU(:,1,:,1) ( units: m ) */
(PID.TID 0000.0001)   121 @  3.463587305060435E+03              /* I =  1:121 */
(PID.TID 0000.0001)     ;
(PID.TID 0000.0001) dyU =  /* dyU(1,:,1,:) ( units: m ) */
(PID.TID 0000.0001)                 3.463587305060435E+03,      /* J =  1 */
(PID.TID 0000.0001)                 3.798420889698782E+03,      /* J =  2 */
(PID.TID 0000.0001)                 3.797360618689794E+03,      /* J =  3 */
(PID.TID 0000.0001)      . . .
(PID.TID 0000.0001)                 3.781456553554977E+03,      /* J = 17 */
(PID.TID 0000.0001)                 3.780290255445090E+03,      /* J = 18 */
(PID.TID 0000.0001)                 3.779123957335204E+03,      /* J = 19 */
(PID.TID 0000.0001)                 3.777957659225317E+03,      /* J = 20 */
(PID.TID 0000.0001)                 3.776791361115431E+03,      /* J = 21 */
(PID.TID 0000.0001)                 3.775731090106443E+03,      /* J = 22 */
(PID.TID 0000.0001)      . . .
(PID.TID 0000.0001)                 3.759614970769828E+03,      /* J = 36 */
(PID.TID 0000.0001)                 3.758448672659942E+03,      /* J = 37 */
(PID.TID 0000.0001)                 3.757282374550055E+03,      /* J = 38 */
(PID.TID 0000.0001)                 3.756116076440168E+03,      /* J = 39 */
(PID.TID 0000.0001)                 3.754949778330282E+03,      /* J = 40 */
(PID.TID 0000.0001)                 3.753889507321294E+03,      /* J = 41 */
(PID.TID 0000.0001)      . . .
(PID.TID 0000.0001)                 3.737561333782882E+03,      /* J = 55 */
(PID.TID 0000.0001)                 3.736395035672996E+03,      /* J = 56 */
(PID.TID 0000.0001)                 3.735122710462210E+03,      /* J = 57 */
(PID.TID 0000.0001)                 3.733956412352324E+03,      /* J = 58 */
(PID.TID 0000.0001)                 3.732896141343336E+03,      /* J = 59 */
(PID.TID 0000.0001)                 3.731729843233449E+03,      /* J = 60 */
(PID.TID 0000.0001)      . . .
(PID.TID 0000.0001)                 3.715189615493240E+03,      /* J = 74 */
(PID.TID 0000.0001)                 3.714023317383353E+03,      /* J = 75 */
(PID.TID 0000.0001)                 3.712750992172568E+03       /* J = 76 */
(PID.TID 0000.0001)     ;
(PID.TID 0000.0001) rA  =  /* rA (:,1,:,1) ( units: m^2 ) */
(PID.TID 0000.0001)   121 @  1.569790392627073E+07              /* I =  1:121 */
(PID.TID 0000.0001)     ;
(PID.TID 0000.0001) rA  =  /* rA (1,:,1,:) ( units: m^2 ) */
(PID.TID 0000.0001)                 1.569790392627073E+07,      /* J =  1 */
(PID.TID 0000.0001)                 1.568877799393386E+07,      /* J =  2 */
(PID.TID 0000.0001)                 1.567965046024477E+07,      /* J =  3 */
(PID.TID 0000.0001)      . . .
(PID.TID 0000.0001)                 1.554735283576100E+07,      /* J = 17 */
(PID.TID 0000.0001)                 1.553733358804201E+07,      /* J = 18 */
(PID.TID 0000.0001)                 1.552818501201680E+07,      /* J = 19 */
(PID.TID 0000.0001)                 1.551816396996124E+07,      /* J = 20 */
(PID.TID 0000.0001)                 1.550901308262007E+07,      /* J = 21 */
(PID.TID 0000.0001)                 1.549986078553674E+07,      /* J = 22 */
(PID.TID 0000.0001)      . . .
(PID.TID 0000.0001)                 1.536639729623535E+07,      /* J = 36 */
(PID.TID 0000.0001)                 1.535636187397145E+07,      /* J = 37 */
(PID.TID 0000.0001)                 1.534719217327880E+07,      /* J = 38 */
(PID.TID 0000.0001)                 1.533715535169233E+07,      /* J = 39 */
(PID.TID 0000.0001)                 1.532798372586704E+07,      /* J = 40 */
(PID.TID 0000.0001)                 1.531881087890220E+07,      /* J = 41 */
(PID.TID 0000.0001)      . . .
(PID.TID 0000.0001)                 1.518425218570536E+07,      /* J = 55 */
(PID.TID 0000.0001)                 1.517420485112466E+07,      /* J = 56 */
(PID.TID 0000.0001)                 1.516415728307537E+07,      /* J = 57 */
(PID.TID 0000.0001)                 1.515497013788621E+07,      /* J = 58 */
(PID.TID 0000.0001)                 1.514578194771098E+07,      /* J = 59 */
(PID.TID 0000.0001)                 1.513573263166044E+07,      /* J = 60 */
(PID.TID 0000.0001)      . . .
(PID.TID 0000.0001)                 1.500015268075045E+07,      /* J = 74 */
(PID.TID 0000.0001)                 1.499095410870139E+07,      /* J = 75 */
(PID.TID 0000.0001)                 1.498004342041226E+07       /* J = 76 */
(PID.TID 0000.0001)     ;
(PID.TID 0000.0001) rAw =  /* rAw(:,1,:,1) ( units: m^2 ) */
(PID.TID 0000.0001)   121 @  1.569790392627073E+07              /* I =  1:121 */
(PID.TID 0000.0001)     ;
(PID.TID 0000.0001) rAw =  /* rAw(1,:,1,:) ( units: m^2 ) */
(PID.TID 0000.0001)                 1.569790392627073E+07,      /* J =  1 */
(PID.TID 0000.0001)                 1.568877799393386E+07,      /* J =  2 */
(PID.TID 0000.0001)                 1.567965046024477E+07,      /* J =  3 */
(PID.TID 0000.0001)      . . .
(PID.TID 0000.0001)                 1.554735283576100E+07,      /* J = 17 */
(PID.TID 0000.0001)                 1.553733358804201E+07,      /* J = 18 */
(PID.TID 0000.0001)                 1.552818501201680E+07,      /* J = 19 */
(PID.TID 0000.0001)                 1.551816396996124E+07,      /* J = 20 */
(PID.TID 0000.0001)                 1.550901308262007E+07,      /* J = 21 */
(PID.TID 0000.0001)                 1.549986078553674E+07,      /* J = 22 */
(PID.TID 0000.0001)      . . .
(PID.TID 0000.0001)                 1.536639729623535E+07,      /* J = 36 */
(PID.TID 0000.0001)                 1.535636187397145E+07,      /* J = 37 */
(PID.TID 0000.0001)                 1.534719217327880E+07,      /* J = 38 */
(PID.TID 0000.0001)                 1.533715535169233E+07,      /* J = 39 */
(PID.TID 0000.0001)                 1.532798372586704E+07,      /* J = 40 */
(PID.TID 0000.0001)                 1.531881087890220E+07,      /* J = 41 */
(PID.TID 0000.0001)      . . .
(PID.TID 0000.0001)                 1.518425218570536E+07,      /* J = 55 */
(PID.TID 0000.0001)                 1.517420485112466E+07,      /* J = 56 */
(PID.TID 0000.0001)                 1.516415728307537E+07,      /* J = 57 */
(PID.TID 0000.0001)                 1.515497013788621E+07,      /* J = 58 */
(PID.TID 0000.0001)                 1.514578194771098E+07,      /* J = 59 */
(PID.TID 0000.0001)                 1.513573263166044E+07,      /* J = 60 */
(PID.TID 0000.0001)      . . .
(PID.TID 0000.0001)                 1.500015268075045E+07,      /* J = 74 */
(PID.TID 0000.0001)                 1.499095410870139E+07,      /* J = 75 */
(PID.TID 0000.0001)                 1.498004342041226E+07       /* J = 76 */
(PID.TID 0000.0001)     ;
(PID.TID 0000.0001) rAs =  /* rAs(:,1,:,1) ( units: m^2 ) */
(PID.TID 0000.0001)   121 @  1.431409585161713E+07              /* I =  1:121 */
(PID.TID 0000.0001)     ;
(PID.TID 0000.0001) rAs =  /* rAs(1,:,1,:) ( units: m^2 ) */
(PID.TID 0000.0001)                 1.431409585161713E+07,      /* J =  1 */
(PID.TID 0000.0001)                 1.569334132646529E+07,      /* J =  2 */
(PID.TID 0000.0001)                 1.568421459236220E+07,      /* J =  3 */
(PID.TID 0000.0001)      . . .
(PID.TID 0000.0001)                 1.555192629706736E+07,      /* J = 17 */
(PID.TID 0000.0001)                 1.554234349323534E+07,      /* J = 18 */
(PID.TID 0000.0001)                 1.553275964738865E+07,      /* J = 19 */
(PID.TID 0000.0001)                 1.552317476996653E+07,      /* J = 20 */
(PID.TID 0000.0001)                 1.551358887140660E+07,      /* J = 21 */
(PID.TID 0000.0001)                 1.550443727811980E+07,      /* J = 22 */
(PID.TID 0000.0001)      . . .
(PID.TID 0000.0001)                 1.537098149232857E+07,      /* J = 36 */
(PID.TID 0000.0001)                 1.536137984435806E+07,      /* J = 37 */
(PID.TID 0000.0001)                 1.535177734997811E+07,      /* J = 38 */
(PID.TID 0000.0001)                 1.534217401942485E+07,      /* J = 39 */
(PID.TID 0000.0001)                 1.533256986292950E+07,      /* J = 40 */
(PID.TID 0000.0001)                 1.532339762548036E+07,      /* J = 41 */
(PID.TID 0000.0001)      . . .
(PID.TID 0000.0001)                 1.518884502346496E+07,      /* J = 55 */
(PID.TID 0000.0001)                 1.517922875591728E+07,      /* J = 56 */
(PID.TID 0000.0001)                 1.516918130342699E+07,      /* J = 57 */
(PID.TID 0000.0001)                 1.515956401498884E+07,      /* J = 58 */
(PID.TID 0000.0001)                 1.515037634627304E+07,      /* J = 59 */
(PID.TID 0000.0001)                 1.514075752265306E+07,      /* J = 60 */
(PID.TID 0000.0001)      . . .
(PID.TID 0000.0001)                 1.500518010887632E+07,      /* J = 74 */
(PID.TID 0000.0001)                 1.499555368096406E+07,      /* J = 75 */
(PID.TID 0000.0001)                 1.498549890920091E+07       /* J = 76 */
(PID.TID 0000.0001)     ;
(PID.TID 0000.0001) globalArea = /* Integrated horizontal Area (m^2) */
(PID.TID 0000.0001)                 1.130146430983161E+13
(PID.TID 0000.0001)     ;
(PID.TID 0000.0001) // =======================================================
(PID.TID 0000.0001) // End of Model config. summary
(PID.TID 0000.0001) // =======================================================
(PID.TID 0000.0001) 
(PID.TID 0000.0001) == Packages configuration : Check & print summary ==
(PID.TID 0000.0001) 
(PID.TID 0000.0001) OBCS_CHECK: #define ALLOW_OBCS
(PID.TID 0000.0001) OBCS_CHECK: start summary:
(PID.TID 0000.0001) useOBCSprescribe = /* prescribe OB values */
(PID.TID 0000.0001)                   T
(PID.TID 0000.0001)     ;
(PID.TID 0000.0001) useOBCSbalance = /* balance the flow through OB */
(PID.TID 0000.0001)                   T
(PID.TID 0000.0001)     ;
(PID.TID 0000.0001) OBCS_balanceFacN = /* Northern OB Factor for balancing OB flow [-] */
(PID.TID 0000.0001)                -1.000000000000000E+00
(PID.TID 0000.0001)     ;
(PID.TID 0000.0001) OBCS_balanceFacS = /* Southern OB Factor for balancing OB flow [-] */
(PID.TID 0000.0001)                -1.000000000000000E+00
(PID.TID 0000.0001)     ;
(PID.TID 0000.0001) OBCS_balanceFacE = /* Eastern  OB Factor for balancing OB flow [-] */
(PID.TID 0000.0001)                 1.000000000000000E+00
(PID.TID 0000.0001)     ;
(PID.TID 0000.0001) OBCS_balanceFacW = /* Western  OB Factor for balancing OB flow [-] */
(PID.TID 0000.0001)                 1.000000000000000E+00
(PID.TID 0000.0001)     ;
(PID.TID 0000.0001) OBCS_uvApplyFac = /* Factor to apply to U,V 2nd column/row */
(PID.TID 0000.0001)                 1.000000000000000E+00
(PID.TID 0000.0001)     ;
(PID.TID 0000.0001) OBCS_u1_adv_T = /* Temp uses upwind adv-scheme @ OB */
(PID.TID 0000.0001)                       1
(PID.TID 0000.0001)     ;
(PID.TID 0000.0001) OBCS_u1_adv_S = /* Salt uses upwind adv-scheme @ OB */
(PID.TID 0000.0001)                       1
(PID.TID 0000.0001)     ;
(PID.TID 0000.0001) OBCS_monitorFreq = /* monitor output frequency [s] */
(PID.TID 0000.0001)                 2.400000000000000E+02
(PID.TID 0000.0001)     ;
(PID.TID 0000.0001) OBCS_monSelect = /* select group of variables to monitor */
(PID.TID 0000.0001)                       3
(PID.TID 0000.0001)     ;
(PID.TID 0000.0001) useOBCStides = /* apply tidal forcing through OB */
(PID.TID 0000.0001)                   T
(PID.TID 0000.0001)     ;
(PID.TID 0000.0001) tidalPeriod = /* (s) */
(PID.TID 0000.0001)                 4.471416500000000E+04,      /* I =  1 */
(PID.TID 0000.0001)                 4.320000100000000E+04,      /* I =  2 */
(PID.TID 0000.0001)                 4.557005400000000E+04,      /* I =  3 */
(PID.TID 0000.0001)                 4.308205000000000E+04,      /* I =  4 */
(PID.TID 0000.0001)                 8.616407700000000E+04,      /* I =  5 */
(PID.TID 0000.0001)                 9.294963600000000E+04,      /* I =  6 */
(PID.TID 0000.0001)                 8.663720000000000E+04,      /* I =  7 */
(PID.TID 0000.0001)                 9.672608600000000E+04,      /* I =  8 */
(PID.TID 0000.0001)                 1.180295546000000E+06,      /* I =  9 */
(PID.TID 0000.0001)                 2.380715864000000E+06,      /* I = 10 */
(PID.TID 0000.0001)                 2.235709100000000E+04,      /* I = 11 */
(PID.TID 0000.0001)                 2.197202200000000E+04,      /* I = 12 */
(PID.TID 0000.0001)                 2.256904200000000E+04       /* I = 13 */
(PID.TID 0000.0001)     ;
(PID.TID 0000.0001) OB_indexNone = /* null value for OB index (i.e. no OB) */
(PID.TID 0000.0001)                     -99
(PID.TID 0000.0001)     ;
(PID.TID 0000.0001) ======== Tile bi=   1 , bj=   1 ========
(PID.TID 0000.0001)  OB_Jn = /* Northern OB local indices */
(PID.TID 0000.0001)   129 @      -99                            /* I = -3:125 */
(PID.TID 0000.0001)  OB_Js = /* Southern OB local indices */
(PID.TID 0000.0001)     4 @      -99,                           /* I = -3:  0 */
(PID.TID 0000.0001)   125 @        2                            /* I =  1:125 */
(PID.TID 0000.0001)  OB_Ie = /* Eastern OB local indices */
(PID.TID 0000.0001)    84 @      -99                            /* J = -3: 80 */
(PID.TID 0000.0001)  OB_Iw = /* Western OB local indices */
(PID.TID 0000.0001)    84 @      -99                            /* J = -3: 80 */
(PID.TID 0000.0001) OBCS_CHECK: end summary.
(PID.TID 0000.0001) OBCS_CHECK: set-up OK
(PID.TID 0000.0001) OBCS_CHECK: check Inside Mask and OB locations: OK
(PID.TID 0000.0001) KPP_CHECK: #define ALLOW_KPP
(PID.TID 0000.0001)  kpp_freq = /* frequency of KPP calculation */
(PID.TID 0000.0001)                 2.400000000000000E+02
(PID.TID 0000.0001)     ;
(PID.TID 0000.0001) KPP_ghatUseTotalDiffus= /* non-local term fct of total diffus */
(PID.TID 0000.0001)                   F
(PID.TID 0000.0001)     ;
(PID.TID 0000.0001) KPPuseDoubleDiff = /* include double diffusive contrib */
(PID.TID 0000.0001)                   F
(PID.TID 0000.0001)     ;
(PID.TID 0000.0001) LimitHblStable = /* limits depth of hbl if stable cond.*/
(PID.TID 0000.0001)                   T
(PID.TID 0000.0001)     ;
(PID.TID 0000.0001)  minKPPhbl = /* minimum KPPhbl value [m] */
(PID.TID 0000.0001)                 2.500000000000000E+00
(PID.TID 0000.0001)     ;
(PID.TID 0000.0001)  epsln     = /* constant [-] */
(PID.TID 0000.0001)                 9.999999999999999E-21
(PID.TID 0000.0001)     ;
(PID.TID 0000.0001)  phepsi    = /* constant [-] */
(PID.TID 0000.0001)                 1.000000000000000E-10
(PID.TID 0000.0001)     ;
(PID.TID 0000.0001)  epsilon   = /* constant [-] */
(PID.TID 0000.0001)                 1.000000000000000E-01
(PID.TID 0000.0001)     ;
(PID.TID 0000.0001)  vonk      = /* Von Karmans constant [-] */
(PID.TID 0000.0001)                 4.000000000000000E-01
(PID.TID 0000.0001)     ;
(PID.TID 0000.0001)  dB_dz     = /* maximum N^2 in mixed layer [s^-2] */
(PID.TID 0000.0001)                 5.200000000000000E-05
(PID.TID 0000.0001)     ;
(PID.TID 0000.0001)  conc1     = /* scalar constant [-] */
(PID.TID 0000.0001)                 5.000000000000000E+00
(PID.TID 0000.0001)     ;
(PID.TID 0000.0001)  conam     = /* scalar constant [-] */
(PID.TID 0000.0001)                 1.257000000000000E+00
(PID.TID 0000.0001)     ;
(PID.TID 0000.0001)  concm     = /* scalar constant [-] */
(PID.TID 0000.0001)                 8.380000000000001E+00
(PID.TID 0000.0001)     ;
(PID.TID 0000.0001)  conc2     = /* scalar constant [-] */
(PID.TID 0000.0001)                 1.600000000000000E+01
(PID.TID 0000.0001)     ;
(PID.TID 0000.0001)  conas     = /* scalar constant [-] */
(PID.TID 0000.0001)                -2.886000000000000E+01
(PID.TID 0000.0001)     ;
(PID.TID 0000.0001)  concs     = /* scalar constant [-] */
(PID.TID 0000.0001)                 9.895999999999999E+01
(PID.TID 0000.0001)     ;
(PID.TID 0000.0001)  conc3     = /* scalar constant [-] */
(PID.TID 0000.0001)                 1.600000000000000E+01
(PID.TID 0000.0001)     ;
(PID.TID 0000.0001)  zetam     = /* scalar constant [-] */
(PID.TID 0000.0001)                -2.000000000000000E-01
(PID.TID 0000.0001)     ;
(PID.TID 0000.0001)  zetas     = /* scalar constant [-] */
(PID.TID 0000.0001)                -1.000000000000000E+00
(PID.TID 0000.0001)     ;
(PID.TID 0000.0001)  Ricr      = /* critical bulk Richardson Number [-] */
(PID.TID 0000.0001)                 3.000000000000000E-01
(PID.TID 0000.0001)     ;
(PID.TID 0000.0001)  cekman    = /* coeff for Ekman depth [-] */
(PID.TID 0000.0001)                 7.000000000000000E-01
(PID.TID 0000.0001)     ;
(PID.TID 0000.0001)  cmonob    = /* coeff for Monin-Obukhov depth [-] */
(PID.TID 0000.0001)                 1.000000000000000E+00
(PID.TID 0000.0001)     ;
(PID.TID 0000.0001)  concv     = /* buoyancy freq ratio [-] */
(PID.TID 0000.0001)                 1.800000000000000E+00
(PID.TID 0000.0001)     ;
(PID.TID 0000.0001)  hbf       = /* solar radiation depth ratio [-] */
(PID.TID 0000.0001)                 1.000000000000000E+00
(PID.TID 0000.0001)     ;
(PID.TID 0000.0001)  zmin      = /* minimum for zehat in table [m3/s3] */
(PID.TID 0000.0001)                -4.000000000000000E-07
(PID.TID 0000.0001)     ;
(PID.TID 0000.0001)  zmax      = /* maximum for zehat in table [m3/s3] */
(PID.TID 0000.0001)                 0.000000000000000E+00
(PID.TID 0000.0001)     ;
(PID.TID 0000.0001)  umin      = /* minimum for ustar in table [m/s] */
(PID.TID 0000.0001)                 0.000000000000000E+00
(PID.TID 0000.0001)     ;
(PID.TID 0000.0001)  umax      = /* maximum for ustar in table [m/s] */
(PID.TID 0000.0001)                 4.000000000000000E-02
(PID.TID 0000.0001)     ;
(PID.TID 0000.0001) num_v_smooth_Ri = /* number of vertical smoothing */
(PID.TID 0000.0001)                       0
(PID.TID 0000.0001)     ;
(PID.TID 0000.0001)  Riinfty   = /* shear instability Ri number limit [-] */
(PID.TID 0000.0001)                 7.000000000000000E-01
(PID.TID 0000.0001)     ;
(PID.TID 0000.0001)  BVSQcon   = /* Brunt-Vaisala squared (=N^2) [s^-2] */
(PID.TID 0000.0001)                -2.000000000000000E-05
(PID.TID 0000.0001)     ;
(PID.TID 0000.0001)  difm0     = /* max viscosity from shear instab. [m2/s] */
(PID.TID 0000.0001)                 5.000000000000000E-03
(PID.TID 0000.0001)     ;
(PID.TID 0000.0001)  difs0     = /* max diffusiv. from shear instab. [m2/s] */
(PID.TID 0000.0001)                 5.000000000000000E-03
(PID.TID 0000.0001)     ;
(PID.TID 0000.0001)  dift0     = /* max diffusiv. from shear instab. [m2/s] */
(PID.TID 0000.0001)                 5.000000000000000E-03
(PID.TID 0000.0001)     ;
(PID.TID 0000.0001)  difmcon   = /* convective viscosity [m2/s] */
(PID.TID 0000.0001)                 1.000000000000000E-01
(PID.TID 0000.0001)     ;
(PID.TID 0000.0001)  difscon   = /* convective diffusiv. [m2/s] */
(PID.TID 0000.0001)                 1.000000000000000E-01
(PID.TID 0000.0001)     ;
(PID.TID 0000.0001)  diftcon   = /* convective diffusiv. [m2/s] */
(PID.TID 0000.0001)                 1.000000000000000E-01
(PID.TID 0000.0001)     ;
(PID.TID 0000.0001)  Rrho0     = /* double diffusion density ratio [-] */
(PID.TID 0000.0001)                 1.900000000000000E+00
(PID.TID 0000.0001)     ;
(PID.TID 0000.0001)  dsfmax    = /* max diffusiv. for salt fingering [m2/s] */
(PID.TID 0000.0001)                 1.000000000000000E-02
(PID.TID 0000.0001)     ;
(PID.TID 0000.0001)  cstar     = /* coeff for non-locak transport [-] */
(PID.TID 0000.0001)                 1.000000000000000E+01
(PID.TID 0000.0001)     ;
(PID.TID 0000.0001) KPPwriteState = /* write KPP fields to file */
(PID.TID 0000.0001)                   F
(PID.TID 0000.0001)     ;
(PID.TID 0000.0001)  kpp_dumpFreq = /* dump freq of KPP output */
(PID.TID 0000.0001)                 0.000000000000000E+00
(PID.TID 0000.0001)     ;
(PID.TID 0000.0001)  kpp_taveFreq = /* time-averaging freq of KPP output */
(PID.TID 0000.0001)                 0.000000000000000E+00
(PID.TID 0000.0001)     ;
(PID.TID 0000.0001) 
(PID.TID 0000.0001) EXF_CHECK: #define ALLOW_EXF
(PID.TID 0000.0001) GAD_CHECK: #define ALLOW_GENERIC_ADVDIFF
(PID.TID 0000.0001) // =======================================================
(PID.TID 0000.0001) // Check Model config. (CONFIG_CHECK):
(PID.TID 0000.0001) // CONFIG_CHECK : Normal End
(PID.TID 0000.0001) // =======================================================
(PID.TID 0000.0001) 
(PID.TID 0000.0001)  MDS_READ_FIELD: opening global file: U0_1815x532x100.bin
(PID.TID 0000.0001)  MDS_READ_FIELD: opening global file: V0_1815x532x100.bin
(PID.TID 0000.0001)  MDS_READ_FIELD: opening global file: T0_1815x532x100.bin
(PID.TID 0000.0001)  MDS_READ_FIELD: opening global file: S0_1815x532x100.bin
(PID.TID 0000.0001) Start initial hydrostatic pressure computation
(PID.TID 0000.0001) Pressure is predetermined for buoyancyRelation OCEANIC
(PID.TID 0000.0001) 
(PID.TID 0000.0001)  write diagnostics summary to file ioUnit:      6
Iter.Nb:         0 ; Time(s):  0.0000000000000E+00
------------------------------------------------------------------------
2D/3D diagnostics: Number of lists:     2
------------------------------------------------------------------------
listId=    1 ; file name: diags/surface
 nFlds, nActive,       freq     &     phase        , nLev               
    5  |    5  |      3600.000000         0.000000 |   1
 levels:   1
 diag# | name   |   ipt  |  iMate | kLev|   count |   mate.C|           
    23 |ETAN    |      1 |      0 |   1 |       0 |
    80 |oceTAUX |      2 |      3 |   1 |       0 |       0 |
    81 |oceTAUY |      3 |      2 |   1 |       0 |       0 |
   185 |EXFuwind|      4 |      0 |   1 |       0 |
   186 |EXFvwind|      5 |      0 |   1 |       0 |
------------------------------------------------------------------------
listId=    2 ; file name: diags/interior
 nFlds, nActive,       freq     &     phase        , nLev               
    9  |    9  |   2592000.000000         0.000000 | 100
 levels:   1   2   3   4   5   6   7   8   9  10  11  12  13  14  15  16  17  18  19  20  21  22  23  24  25
 levels:  26  27  28  29  30  31  32  33  34  35  36  37  38  39  40  41  42  43  44  45  46  47  48  49  50
 levels:  51  52  53  54  55  56  57  58  59  60  61  62  63  64  65  66  67  68  69  70  71  72  73  74  75
 levels:  76  77  78  79  80  81  82  83  84  85  86  87  88  89  90  91  92  93  94  95  96  97  98  99 100
 diag# | name   |   ipt  |  iMate | kLev|   count |   mate.C|           
    26 |THETA   |      6 |      0 | 100 |       0 |
    27 |SALT    |    106 |      0 | 100 |       0 |
    30 |UVEL    |    206 |    306 | 100 |       0 |       0 |
    31 |VVEL    |    306 |    206 | 100 |       0 |       0 |
    32 |WVEL    |    406 |      0 | 100 |       0 |
    36 |UVELSQ  |    506 |    606 | 100 |       0 |       0 |
    37 |VVELSQ  |    606 |    506 | 100 |       0 |       0 |
    52 |WTHMASS |    706 |      0 | 100 |       0 |
    55 |WSLTMASS|    806 |      0 | 100 |       0 |
------------------------------------------------------------------------
Global & Regional Statistics diagnostics: Number of lists:     0
------------------------------------------------------------------------
(PID.TID 0000.0001)  MDS_READ_SEC_XZ: opening global file: OBNam_1815x13.bin
(PID.TID 0000.0001)  MDS_READ_SEC_XZ: opening global file: OBNph_1815x13.bin
(PID.TID 0000.0001)  MDS_READ_SEC_XZ: opening global file: OBSam_1815x13.bin
(PID.TID 0000.0001)  MDS_READ_SEC_XZ: opening global file: OBSph_1815x13.bin
(PID.TID 0000.0001)  MDS_READ_SEC_XZ: opening global file: OBNu_1815x100x26.bin
(PID.TID 0000.0001)  MDS_READ_SEC_XZ: opening global file: OBNu_1815x100x26.bin
(PID.TID 0000.0001)  MDS_READ_SEC_XZ: opening global file: OBNv_1815x100x26.bin
(PID.TID 0000.0001)  MDS_READ_SEC_XZ: opening global file: OBNv_1815x100x26.bin
(PID.TID 0000.0001)  MDS_READ_SEC_XZ: opening global file: OBNt_1815x100x26.bin
(PID.TID 0000.0001)  MDS_READ_SEC_XZ: opening global file: OBNt_1815x100x26.bin
(PID.TID 0000.0001)  MDS_READ_SEC_XZ: opening global file: OBNs_1815x100x26.bin
(PID.TID 0000.0001)  MDS_READ_SEC_XZ: opening global file: OBNs_1815x100x26.bin
(PID.TID 0000.0001)  MDS_READ_SEC_XZ: opening global file: OBSu_1815x100x26.bin
(PID.TID 0000.0001)  MDS_READ_SEC_XZ: opening global file: OBSu_1815x100x26.bin
(PID.TID 0000.0001)  MDS_READ_SEC_XZ: opening global file: OBSv_1815x100x26.bin
(PID.TID 0000.0001)  MDS_READ_SEC_XZ: opening global file: OBSv_1815x100x26.bin
(PID.TID 0000.0001)  MDS_READ_SEC_XZ: opening global file: OBSt_1815x100x26.bin
(PID.TID 0000.0001)  MDS_READ_SEC_XZ: opening global file: OBSt_1815x100x26.bin
(PID.TID 0000.0001)  MDS_READ_SEC_XZ: opening global file: OBSs_1815x100x26.bin
(PID.TID 0000.0001)  MDS_READ_SEC_XZ: opening global file: OBSs_1815x100x26.bin
(PID.TID 0000.0001) // =======================================================
(PID.TID 0000.0001) // Model current state
(PID.TID 0000.0001) // =======================================================
(PID.TID 0000.0001) 
(PID.TID 0000.0001) // =======================================================
(PID.TID 0000.0001) // Begin MONITOR dynamic field statistics
(PID.TID 0000.0001) // =======================================================
(PID.TID 0000.0001) %MON time_tsnumber                =                     0
(PID.TID 0000.0001) %MON time_secondsf                =   0.0000000000000E+00
(PID.TID 0000.0001) %MON dynstat_eta_max              =   0.0000000000000E+00
(PID.TID 0000.0001) %MON dynstat_eta_min              =   0.0000000000000E+00
(PID.TID 0000.0001) %MON dynstat_eta_mean             =   0.0000000000000E+00
(PID.TID 0000.0001) %MON dynstat_eta_sd               =   0.0000000000000E+00
(PID.TID 0000.0001) %MON dynstat_eta_del2             =   0.0000000000000E+00
(PID.TID 0000.0001) %MON dynstat_uvel_max             =   1.2655940055847E+00
(PID.TID 0000.0001) %MON dynstat_uvel_min             =  -6.7179697751999E-01
(PID.TID 0000.0001) %MON dynstat_uvel_mean            =   3.8933782453986E-03
(PID.TID 0000.0001) %MON dynstat_uvel_sd              =   5.2086469330267E-02
(PID.TID 0000.0001) %MON dynstat_uvel_del2            =   3.0019794494423E-07
(PID.TID 0000.0001) %MON dynstat_vvel_max             =   1.8766679377822E+00
(PID.TID 0000.0001) %MON dynstat_vvel_min             =  -8.8630950450897E-01
(PID.TID 0000.0001) %MON dynstat_vvel_mean            =  -1.8315008085782E-04
(PID.TID 0000.0001) %MON dynstat_vvel_sd              =   4.8401112616990E-02
(PID.TID 0000.0001) %MON dynstat_vvel_del2            =   3.9531900049682E-07
(PID.TID 0000.0001) %MON dynstat_wvel_max             =   8.0878572016153E-02
(PID.TID 0000.0001) %MON dynstat_wvel_min             =  -1.0644865410817E-01
(PID.TID 0000.0001) %MON dynstat_wvel_mean            =  -1.8564800099858E-06
(PID.TID 0000.0001) %MON dynstat_wvel_sd              =   1.3360682389456E-03
(PID.TID 0000.0001) %MON dynstat_wvel_del2            =   3.7531921664199E-07
(PID.TID 0000.0001) %MON dynstat_theta_max            =   2.6144617080688E+01
(PID.TID 0000.0001) %MON dynstat_theta_min            =   1.4688636064529E+00
(PID.TID 0000.0001) %MON dynstat_theta_mean           =   5.5098811020490E+00
(PID.TID 0000.0001) %MON dynstat_theta_sd             =   4.7735348546540E+00
(PID.TID 0000.0001) %MON dynstat_theta_del2           =   4.0189244228701E-06
(PID.TID 0000.0001) %MON dynstat_salt_max             =   3.9185241699219E+01
(PID.TID 0000.0001) %MON dynstat_salt_min             =   3.3089591979980E+01
(PID.TID 0000.0001) %MON dynstat_salt_mean            =   3.5173374558494E+01
(PID.TID 0000.0001) %MON dynstat_salt_sd              =   3.7891790794923E-01
(PID.TID 0000.0001) %MON dynstat_salt_del2            =   4.9655867703385E-07
(PID.TID 0000.0001) %MON dynstat_sst_max              =   2.6144517898560E+01
(PID.TID 0000.0001) %MON dynstat_sst_min              =   4.0907053947449E+00
(PID.TID 0000.0001) %MON dynstat_sst_mean             =   1.9650344179206E+01
(PID.TID 0000.0001) %MON dynstat_sst_sd               =   3.6388127143233E+00
(PID.TID 0000.0001) %MON dynstat_sst_del2             =   1.9236263370514E-05
(PID.TID 0000.0001) %MON dynstat_sss_max              =   3.7335128784180E+01
(PID.TID 0000.0001) %MON dynstat_sss_min              =   3.3089591979980E+01
(PID.TID 0000.0001) %MON dynstat_sss_mean             =   3.5867950426451E+01
(PID.TID 0000.0001) %MON dynstat_sss_sd               =   4.8717343265566E-01
(PID.TID 0000.0001) %MON dynstat_sss_del2             =   5.0430181870384E-06
(PID.TID 0000.0001) %MON forcing_qnet_max             =   0.0000000000000E+00
(PID.TID 0000.0001) %MON forcing_qnet_min             =   0.0000000000000E+00
(PID.TID 0000.0001) %MON forcing_qnet_mean            =   0.0000000000000E+00
(PID.TID 0000.0001) %MON forcing_qnet_sd              =   0.0000000000000E+00
(PID.TID 0000.0001) %MON forcing_qnet_del2            =   0.0000000000000E+00
(PID.TID 0000.0001) %MON forcing_qsw_max              =   0.0000000000000E+00
(PID.TID 0000.0001) %MON forcing_qsw_min              =   0.0000000000000E+00
(PID.TID 0000.0001) %MON forcing_qsw_mean             =   0.0000000000000E+00
(PID.TID 0000.0001) %MON forcing_qsw_sd               =   0.0000000000000E+00
(PID.TID 0000.0001) %MON forcing_qsw_del2             =   0.0000000000000E+00
(PID.TID 0000.0001) %MON forcing_empmr_max            =   0.0000000000000E+00
(PID.TID 0000.0001) %MON forcing_empmr_min            =   0.0000000000000E+00
(PID.TID 0000.0001) %MON forcing_empmr_mean           =   0.0000000000000E+00
(PID.TID 0000.0001) %MON forcing_empmr_sd             =   0.0000000000000E+00
(PID.TID 0000.0001) %MON forcing_empmr_del2           =   0.0000000000000E+00
(PID.TID 0000.0001) %MON forcing_fu_max               =   0.0000000000000E+00
(PID.TID 0000.0001) %MON forcing_fu_min               =   0.0000000000000E+00
(PID.TID 0000.0001) %MON forcing_fu_mean              =   0.0000000000000E+00
(PID.TID 0000.0001) %MON forcing_fu_sd                =   0.0000000000000E+00
(PID.TID 0000.0001) %MON forcing_fu_del2              =   0.0000000000000E+00
(PID.TID 0000.0001) %MON forcing_fv_max               =   0.0000000000000E+00
(PID.TID 0000.0001) %MON forcing_fv_min               =   0.0000000000000E+00
(PID.TID 0000.0001) %MON forcing_fv_mean              =   0.0000000000000E+00
(PID.TID 0000.0001) %MON forcing_fv_sd                =   0.0000000000000E+00
(PID.TID 0000.0001) %MON forcing_fv_del2              =   0.0000000000000E+00
(PID.TID 0000.0001) %MON trAdv_CFL_u_max              =   0.0000000000000E+00
(PID.TID 0000.0001) %MON trAdv_CFL_v_max              =   0.0000000000000E+00
(PID.TID 0000.0001) %MON trAdv_CFL_w_max              =   0.0000000000000E+00
(PID.TID 0000.0001) %MON advcfl_uvel_max              =   7.6757822680034E-02
(PID.TID 0000.0001) %MON advcfl_vvel_max              =   1.1860877864772E-01
(PID.TID 0000.0001) %MON advcfl_wvel_max              =   1.0219070794384E+01
(PID.TID 0000.0001) %MON advcfl_W_hf_max              =   5.0990576573765E+00
(PID.TID 0000.0001) %MON pe_b_mean                    =   0.0000000000000E+00
(PID.TID 0000.0001) %MON ke_max                       =   1.6014653258787E+00
(PID.TID 0000.0001) %MON ke_mean                      =   2.5166672230981E-03
(PID.TID 0000.0001) %MON ke_vol                       =   4.5818637279723E+16
(PID.TID 0000.0001) %MON vort_r_min                   =  -2.7112786765354E-04
(PID.TID 0000.0001) %MON vort_r_max                   =   4.5284213837033E-04
(PID.TID 0000.0001) %MON vort_a_mean                  =   8.2147631506705E-05
(PID.TID 0000.0001) %MON vort_a_sd                    =   1.0110316133310E-05
(PID.TID 0000.0001) %MON vort_p_mean                  =   8.4848853092649E-05
(PID.TID 0000.0001) %MON vort_p_sd                    =   3.4983760879128E-05
(PID.TID 0000.0001) %MON surfExpan_theta_mean         =   2.0592395504452E-05
(PID.TID 0000.0001) %MON surfExpan_salt_mean          =  -1.7210634086920E-04
(PID.TID 0000.0001) // =======================================================
(PID.TID 0000.0001) // End MONITOR dynamic field statistics
(PID.TID 0000.0001) // =======================================================
(PID.TID 0000.0001) // =======================================================
(PID.TID 0000.0001) // Begin OBCS MONITOR field statistics
(PID.TID 0000.0001) // =======================================================
(PID.TID 0000.0001) %MON obc_N_vVel_max               =   6.9579085314553E-01
(PID.TID 0000.0001) %MON obc_N_vVel_min               =  -3.2183263391360E-01
(PID.TID 0000.0001) %MON obc_N_vVel_mean              =   1.3107185862961E-02
(PID.TID 0000.0001) %MON obc_N_vVel_sd                =   6.4693829583860E-02
(PID.TID 0000.0001) %MON obc_N_vVel_Int               =   1.8763047269621E+08
(PID.TID 0000.0001) %MON obc_S_vVel_max               =   1.8766679377822E+00
(PID.TID 0000.0001) %MON obc_S_vVel_min               =  -2.6178254188100E-01
(PID.TID 0000.0001) %MON obc_S_vVel_mean              =   4.1390867252904E-03
(PID.TID 0000.0001) %MON obc_S_vVel_sd                =   3.5756336765240E-02
(PID.TID 0000.0001) %MON obc_S_vVel_Int               =   1.2600580191554E+08
(PID.TID 0000.0001) %MON obc_N_theta_max              =   1.6390861045164E+01
(PID.TID 0000.0001) %MON obc_N_theta_min              =   1.8895907269856E+00
(PID.TID 0000.0001) %MON obc_N_theta_mean             =   5.1589805018888E+00
(PID.TID 0000.0001) %MON obc_N_theta_sd               =   3.4827339404776E+00
(PID.TID 0000.0001) %MON obc_S_theta_max              =   2.5544941308807E+01
(PID.TID 0000.0001) %MON obc_S_theta_min              =   1.4632956408867E+00
(PID.TID 0000.0001) %MON obc_S_theta_mean             =   5.4595577802113E+00
(PID.TID 0000.0001) %MON obc_S_theta_sd               =   5.3559370357223E+00
(PID.TID 0000.0001) %MON obc_N_salt_max               =   3.5910867647958E+01
(PID.TID 0000.0001) %MON obc_N_salt_min               =   3.3295014070045E+01
(PID.TID 0000.0001) %MON obc_N_salt_mean              =   3.5114564316350E+01
(PID.TID 0000.0001) %MON obc_N_salt_sd                =   3.0984932955503E-01
(PID.TID 0000.0001) %MON obc_S_salt_max               =   3.7318346630621E+01
(PID.TID 0000.0001) %MON obc_S_salt_min               =   3.4844694313817E+01
(PID.TID 0000.0001) %MON obc_S_salt_mean              =   3.5168372938834E+01
(PID.TID 0000.0001) %MON obc_S_salt_sd                =   4.5717110794069E-01
(PID.TID 0000.0001) // =======================================================
(PID.TID 0000.0001) // End OBCS MONITOR field statistics
(PID.TID 0000.0001) // =======================================================
(PID.TID 0000.0001)  EXF_INTERP_READ: opening file: era5/ERA5_u10m_2008
(PID.TID 0000.0001)  EXF_INTERP_READ: opening file: era5/ERA5_v10m_2008
(PID.TID 0000.0001)  EXF_INTERP_UV: fileU="era5/ERA5_u10m_2008", rec=     1 , x-Per,P.Sym=    T    T
(PID.TID 0000.0001)  S.edge (j=-1,0,1) : proc= 2.2 1.1 0.0, yIn=  -90.215115  -90.000000  -89.784885
(PID.TID 0000.0001)  N.edge (j=+0,+1,+2) proc= 0.0 1.1 2.2, yIn=   89.784885   90.000000   90.215115
(PID.TID 0000.0001)  EXF_INTERP_READ: opening file: era5/ERA5_u10m_2008
(PID.TID 0000.0001)  EXF_INTERP_READ: opening file: era5/ERA5_v10m_2008
(PID.TID 0000.0001)  EXF_INTERP_UV: fileU="era5/ERA5_u10m_2008", rec=     2 , x-Per,P.Sym=    T    T
(PID.TID 0000.0001)  S.edge (j=-1,0,1) : proc= 2.2 1.1 0.0, yIn=  -90.215115  -90.000000  -89.784885
(PID.TID 0000.0001)  N.edge (j=+0,+1,+2) proc= 0.0 1.1 2.2, yIn=   89.784885   90.000000   90.215115
(PID.TID 0000.0001)  EXF_INTERP_READ: opening file: era5/ERA5_tmp2m_degC_2008
(PID.TID 0000.0001)  EXF_INTERP: file="era5/ERA5_tmp2m_degC_2008", rec=     1 , x-Per,P.Sym=    T    T
(PID.TID 0000.0001)  S.edge (j=-1,0,1) : proc= 2.2 1.1 0.0, yIn=  -90.215115  -90.000000  -89.784885
(PID.TID 0000.0001)  N.edge (j=+0,+1,+2) proc= 0.0 1.1 2.2, yIn=   89.784885   90.000000   90.215115
(PID.TID 0000.0001)  EXF_INTERP_READ: opening file: era5/ERA5_tmp2m_degC_2008
(PID.TID 0000.0001)  EXF_INTERP: file="era5/ERA5_tmp2m_degC_2008", rec=     2 , x-Per,P.Sym=    T    T
(PID.TID 0000.0001)  S.edge (j=-1,0,1) : proc= 2.2 1.1 0.0, yIn=  -90.215115  -90.000000  -89.784885
(PID.TID 0000.0001)  N.edge (j=+0,+1,+2) proc= 0.0 1.1 2.2, yIn=   89.784885   90.000000   90.215115
(PID.TID 0000.0001)  EXF_INTERP_READ: opening file: era5/ERA5_spfh2m_2008
(PID.TID 0000.0001)  EXF_INTERP: file="era5/ERA5_spfh2m_2008", rec=     1 , x-Per,P.Sym=    T    T
(PID.TID 0000.0001)  S.edge (j=-1,0,1) : proc= 2.2 1.1 0.0, yIn=  -90.215115  -90.000000  -89.784885
(PID.TID 0000.0001)  N.edge (j=+0,+1,+2) proc= 0.0 1.1 2.2, yIn=   89.784885   90.000000   90.215115
(PID.TID 0000.0001)  EXF_INTERP_READ: opening file: era5/ERA5_spfh2m_2008
(PID.TID 0000.0001)  EXF_INTERP: file="era5/ERA5_spfh2m_2008", rec=     2 , x-Per,P.Sym=    T    T
(PID.TID 0000.0001)  S.edge (j=-1,0,1) : proc= 2.2 1.1 0.0, yIn=  -90.215115  -90.000000  -89.784885
(PID.TID 0000.0001)  N.edge (j=+0,+1,+2) proc= 0.0 1.1 2.2, yIn=   89.784885   90.000000   90.215115
(PID.TID 0000.0001)  EXF_INTERP_READ: opening file: era5/ERA5_rain_2007
(PID.TID 0000.0001)  EXF_INTERP: file="era5/ERA5_rain_2007", rec=  8760 , x-Per,P.Sym=    T    T
(PID.TID 0000.0001)  S.edge (j=-1,0,1) : proc= 2.2 1.1 0.0, yIn=  -90.215115  -90.000000  -89.784885
(PID.TID 0000.0001)  N.edge (j=+0,+1,+2) proc= 0.0 1.1 2.2, yIn=   89.784885   90.000000   90.215115
(PID.TID 0000.0001)  EXF_INTERP_READ: opening file: era5/ERA5_rain_2008
(PID.TID 0000.0001)  EXF_INTERP: file="era5/ERA5_rain_2008", rec=     1 , x-Per,P.Sym=    T    T
(PID.TID 0000.0001)  S.edge (j=-1,0,1) : proc= 2.2 1.1 0.0, yIn=  -90.215115  -90.000000  -89.784885
(PID.TID 0000.0001)  N.edge (j=+0,+1,+2) proc= 0.0 1.1 2.2, yIn=   89.784885   90.000000   90.215115
(PID.TID 0000.0001)  EXF_INTERP_READ: opening file: era5/ERA5_dsw_2007
(PID.TID 0000.0001)  EXF_INTERP: file="era5/ERA5_dsw_2007", rec=  8760 , x-Per,P.Sym=    T    T
(PID.TID 0000.0001)  S.edge (j=-1,0,1) : proc= 2.2 1.1 0.0, yIn=  -90.215115  -90.000000  -89.784885
(PID.TID 0000.0001)  N.edge (j=+0,+1,+2) proc= 0.0 1.1 2.2, yIn=   89.784885   90.000000   90.215115
(PID.TID 0000.0001)  EXF_INTERP_READ: opening file: era5/ERA5_dsw_2008
(PID.TID 0000.0001)  EXF_INTERP: file="era5/ERA5_dsw_2008", rec=     1 , x-Per,P.Sym=    T    T
(PID.TID 0000.0001)  S.edge (j=-1,0,1) : proc= 2.2 1.1 0.0, yIn=  -90.215115  -90.000000  -89.784885
(PID.TID 0000.0001)  N.edge (j=+0,+1,+2) proc= 0.0 1.1 2.2, yIn=   89.784885   90.000000   90.215115
(PID.TID 0000.0001)  EXF_INTERP_READ: opening file: era5/ERA5_dlw_2007
(PID.TID 0000.0001)  EXF_INTERP: file="era5/ERA5_dlw_2007", rec=  8760 , x-Per,P.Sym=    T    T
(PID.TID 0000.0001)  S.edge (j=-1,0,1) : proc= 2.2 1.1 0.0, yIn=  -90.215115  -90.000000  -89.784885
(PID.TID 0000.0001)  N.edge (j=+0,+1,+2) proc= 0.0 1.1 2.2, yIn=   89.784885   90.000000   90.215115
(PID.TID 0000.0001)  EXF_INTERP_READ: opening file: era5/ERA5_dlw_2008
(PID.TID 0000.0001)  EXF_INTERP: file="era5/ERA5_dlw_2008", rec=     1 , x-Per,P.Sym=    T    T
(PID.TID 0000.0001)  S.edge (j=-1,0,1) : proc= 2.2 1.1 0.0, yIn=  -90.215115  -90.000000  -89.784885
(PID.TID 0000.0001)  N.edge (j=+0,+1,+2) proc= 0.0 1.1 2.2, yIn=   89.784885   90.000000   90.215115
(PID.TID 0000.0001)  EXF_INTERP_READ: opening file: era5/ERA5_pres_2008
(PID.TID 0000.0001)  EXF_INTERP: file="era5/ERA5_pres_2008", rec=     1 , x-Per,P.Sym=    T    T
(PID.TID 0000.0001)  S.edge (j=-1,0,1) : proc= 2.2 1.1 0.0, yIn=  -90.215115  -90.000000  -89.784885
(PID.TID 0000.0001)  N.edge (j=+0,+1,+2) proc= 0.0 1.1 2.2, yIn=   89.784885   90.000000   90.215115
(PID.TID 0000.0001)  EXF_INTERP_READ: opening file: era5/ERA5_pres_2008
(PID.TID 0000.0001)  EXF_INTERP: file="era5/ERA5_pres_2008", rec=     2 , x-Per,P.Sym=    T    T
(PID.TID 0000.0001)  S.edge (j=-1,0,1) : proc= 2.2 1.1 0.0, yIn=  -90.215115  -90.000000  -89.784885
(PID.TID 0000.0001)  N.edge (j=+0,+1,+2) proc= 0.0 1.1 2.2, yIn=   89.784885   90.000000   90.215115
(PID.TID 0000.0001)  EXF_INTERP_READ: opening file: tide_IAU_EARTH_2008
(PID.TID 0000.0001)  EXF_INTERP: file="tide_IAU_EARTH_2008", rec=     1 , x-Per,P.Sym=    T    T
(PID.TID 0000.0001)  S.edge (j=-1,0,1) : proc= 0.2 0.2 0.1, yIn=  -92.000000  -91.000000  -90.000000
(PID.TID 0000.0001)  N.edge (j=+0,+1,+2) proc= 0.1 0.2 0.2, yIn=   90.000000   91.000000   92.000000
(PID.TID 0000.0001)  EXF_INTERP_READ: opening file: tide_IAU_EARTH_2008
(PID.TID 0000.0001)  EXF_INTERP: file="tide_IAU_EARTH_2008", rec=     2 , x-Per,P.Sym=    T    T
(PID.TID 0000.0001)  S.edge (j=-1,0,1) : proc= 0.2 0.2 0.1, yIn=  -92.000000  -91.000000  -90.000000
(PID.TID 0000.0001)  N.edge (j=+0,+1,+2) proc= 0.1 0.2 0.2, yIn=   90.000000   91.000000   92.000000
(PID.TID 0000.0001)  EXF_INTERP_READ: opening file: runoff1p2472-360x180x12.bin
(PID.TID 0000.0001)  EXF_INTERP: file="runoff1p2472-360x180x12.bin", rec=    12 , x-Per,P.Sym=    T    T
(PID.TID 0000.0001)  S.edge (j=-1,0,1) : proc= 2.2 1.1 0.0, yIn=  -90.500000  -90.000000  -89.500000
(PID.TID 0000.0001)  N.edge (j=+0,+1,+2) proc= 0.0 1.1 2.2, yIn=   89.500000   90.000000   90.500000
(PID.TID 0000.0001)  EXF_INTERP_READ: opening file: runoff1p2472-360x180x12.bin
(PID.TID 0000.0001)  EXF_INTERP: file="runoff1p2472-360x180x12.bin", rec=     1 , x-Per,P.Sym=    T    T
(PID.TID 0000.0001)  S.edge (j=-1,0,1) : proc= 2.2 1.1 0.0, yIn=  -90.500000  -90.000000  -89.500000
(PID.TID 0000.0001)  N.edge (j=+0,+1,+2) proc= 0.0 1.1 2.2, yIn=   89.500000   90.000000   90.500000
(PID.TID 0000.0001) // =======================================================
(PID.TID 0000.0001) // Begin MONITOR EXF statistics
(PID.TID 0000.0001) // =======================================================
(PID.TID 0000.0001) %MON exf_tsnumber                 =                     0
(PID.TID 0000.0001) %MON exf_time_sec                 =   0.0000000000000E+00
(PID.TID 0000.0001) %MON exf_ustress_max              =   8.4425657279886E-01
(PID.TID 0000.0001) %MON exf_ustress_min              =  -4.3388225409379E-01
(PID.TID 0000.0001) %MON exf_ustress_mean             =   6.3244400800980E-02
(PID.TID 0000.0001) %MON exf_ustress_sd               =   1.5772656976721E-01
(PID.TID 0000.0001) %MON exf_ustress_del2             =   4.4515891282282E-07
(PID.TID 0000.0001) %MON exf_vstress_max              =   4.3288199583206E-01
(PID.TID 0000.0001) %MON exf_vstress_min              =  -5.7660871467115E-01
(PID.TID 0000.0001) %MON exf_vstress_mean             =   1.0765903648788E-02
(PID.TID 0000.0001) %MON exf_vstress_sd               =   1.0393286934948E-01
(PID.TID 0000.0001) %MON exf_vstress_del2             =   3.5452522729150E-07
(PID.TID 0000.0001) %MON exf_hflux_max                =   1.1426329991944E+03
(PID.TID 0000.0001) %MON exf_hflux_min                =  -2.5286213233087E+02
(PID.TID 0000.0001) %MON exf_hflux_mean               =   2.4640048942675E+02
(PID.TID 0000.0001) %MON exf_hflux_sd                 =   1.4494884032874E+02
(PID.TID 0000.0001) %MON exf_hflux_del2               =   6.2414337706233E-02
(PID.TID 0000.0001) %MON exf_sflux_max                =   2.6342200134154E-07
(PID.TID 0000.0001) %MON exf_sflux_min                =  -7.7122086946965E-07
(PID.TID 0000.0001) %MON exf_sflux_mean               =   1.0894847884701E-08
(PID.TID 0000.0001) %MON exf_sflux_sd                 =   9.8849480349466E-08
(PID.TID 0000.0001) %MON exf_sflux_del2               =   2.0235306124689E-11
(PID.TID 0000.0001) %MON exf_uwind_max                =   1.9606748338893E+01
(PID.TID 0000.0001) %MON exf_uwind_min                =  -1.5209100052697E+01
(PID.TID 0000.0001) %MON exf_uwind_mean               =   2.4660403514279E+00
(PID.TID 0000.0001) %MON exf_uwind_sd                 =   6.7030914983872E+00
(PID.TID 0000.0001) %MON exf_uwind_del2               =   1.5523281643237E-03
(PID.TID 0000.0001) %MON exf_vwind_max                =   1.4862500561074E+01
(PID.TID 0000.0001) %MON exf_vwind_min                =  -1.2856596765486E+01
(PID.TID 0000.0001) %MON exf_vwind_mean               =   8.4480850091052E-01
(PID.TID 0000.0001) %MON exf_vwind_sd                 =   5.2438507432233E+00
(PID.TID 0000.0001) %MON exf_vwind_del2               =   1.1629114702716E-03
(PID.TID 0000.0001) %MON exf_wspeed_max               =   2.0676576344075E+01
(PID.TID 0000.0001) %MON exf_wspeed_min               =   2.9018476250048E-03
(PID.TID 0000.0001) %MON exf_wspeed_mean              =   7.7680441025210E+00
(PID.TID 0000.0001) %MON exf_wspeed_sd                =   4.3453369825968E+00
(PID.TID 0000.0001) %MON exf_wspeed_del2              =   1.9393632009991E-03
(PID.TID 0000.0001) %MON exf_atemp_max                =   2.9817782416526E+02
(PID.TID 0000.0001) %MON exf_atemp_min                =   2.7455175867563E+02
(PID.TID 0000.0001) %MON exf_atemp_mean               =   2.9070214679347E+02
(PID.TID 0000.0001) %MON exf_atemp_sd                 =   3.9454298781272E+00
(PID.TID 0000.0001) %MON exf_atemp_del2               =   3.7870344501029E-03
(PID.TID 0000.0001) %MON exf_aqh_max                  =   1.6822475533329E-02
(PID.TID 0000.0001) %MON exf_aqh_min                  =   2.7400629324803E-03
(PID.TID 0000.0001) %MON exf_aqh_mean                 =   9.4287725015435E-03
(PID.TID 0000.0001) %MON exf_aqh_sd                   =   2.8741639256530E-03
(PID.TID 0000.0001) %MON exf_aqh_del2                 =   2.0716761704870E-06
(PID.TID 0000.0001) %MON exf_lwflux_max               =   1.5206774622875E+02
(PID.TID 0000.0001) %MON exf_lwflux_min               =   1.6673561113809E+01
(PID.TID 0000.0001) %MON exf_lwflux_mean              =   7.1263408871749E+01
(PID.TID 0000.0001) %MON exf_lwflux_sd                =   2.0933698112870E+01
(PID.TID 0000.0001) %MON exf_lwflux_del2              =   1.5770375008583E-02
(PID.TID 0000.0001) %MON exf_evap_max                 =   2.6993687419213E-07
(PID.TID 0000.0001) %MON exf_evap_min                 =  -9.0660349981682E-08
(PID.TID 0000.0001) %MON exf_evap_mean                =   5.9648196584141E-08
(PID.TID 0000.0001) %MON exf_evap_sd                  =   4.2510028034750E-08
(PID.TID 0000.0001) %MON exf_evap_del2                =   1.5965820998207E-11
(PID.TID 0000.0001) %MON exf_precip_max               =   9.4246541647784E-07
(PID.TID 0000.0001) %MON exf_precip_min               =   0.0000000000000E+00
(PID.TID 0000.0001) %MON exf_precip_mean              =   4.7164869294221E-08
(PID.TID 0000.0001) %MON exf_precip_sd                =   9.2958497283911E-08
(PID.TID 0000.0001) %MON exf_precip_del2              =   2.1021316797381E-11
(PID.TID 0000.0001) %MON exf_swflux_max               =   0.0000000000000E+00
(PID.TID 0000.0001) %MON exf_swflux_min               =   0.0000000000000E+00
(PID.TID 0000.0001) %MON exf_swflux_mean              =   0.0000000000000E+00
(PID.TID 0000.0001) %MON exf_swflux_sd                =   0.0000000000000E+00
(PID.TID 0000.0001) %MON exf_swflux_del2              =   0.0000000000000E+00
(PID.TID 0000.0001) %MON exf_swdown_max               =   0.0000000000000E+00
(PID.TID 0000.0001) %MON exf_swdown_min               =   0.0000000000000E+00
(PID.TID 0000.0001) %MON exf_swdown_mean              =   0.0000000000000E+00
(PID.TID 0000.0001) %MON exf_swdown_sd                =   0.0000000000000E+00
(PID.TID 0000.0001) %MON exf_swdown_del2              =   0.0000000000000E+00
(PID.TID 0000.0001) %MON exf_lwdown_max               =   3.9820518771429E+02
(PID.TID 0000.0001) %MON exf_lwdown_min               =   2.2735753040754E+02
(PID.TID 0000.0001) %MON exf_lwdown_mean              =   3.4365975552612E+02
(PID.TID 0000.0001) %MON exf_lwdown_sd                =   2.5519938563091E+01
(PID.TID 0000.0001) %MON exf_lwdown_del2              =   7.3540235396205E-02
(PID.TID 0000.0001) %MON exf_apressure_max            =   1.0278540583118E+05
(PID.TID 0000.0001) %MON exf_apressure_min            =   9.9972821377996E+04
(PID.TID 0000.0001) %MON exf_apressure_mean           =   1.0215907878038E+05
(PID.TID 0000.0001) %MON exf_apressure_sd             =   5.0098246938816E+02
(PID.TID 0000.0001) %MON exf_apressure_del2           =   2.1826846185670E+01
(PID.TID 0000.0001) %MON exf_runoff_max               =   4.4374791284855E-08
(PID.TID 0000.0001) %MON exf_runoff_min               =   0.0000000000000E+00
(PID.TID 0000.0001) %MON exf_runoff_mean              =   1.5884794052193E-09
(PID.TID 0000.0001) %MON exf_runoff_sd                =   5.3901957917178E-09
(PID.TID 0000.0001) %MON exf_runoff_del2              =   1.1512509897985E-12
(PID.TID 0000.0001) // =======================================================
(PID.TID 0000.0001) // End MONITOR EXF statistics
(PID.TID 0000.0001) // =======================================================
(PID.TID 0000.0001) SOLVE_FOR_PRESSURE: putPmEinXvector =    F
 cg2d: Sum(rhs),rhsMax =   5.26806012293023E+01  3.53435984020510E-01
(PID.TID 0000.0001)      cg2d_init_res =   1.55204891476735E+01
(PID.TID 0000.0001)      cg2d_iters(min,last) =      -1     326
(PID.TID 0000.0001)      cg2d_last_res =   6.96545113537116E-12
(PID.TID 0000.0001) // =======================================================
(PID.TID 0000.0001) // Begin MONITOR dynamic field statistics
(PID.TID 0000.0001) // =======================================================
(PID.TID 0000.0001) %MON time_tsnumber                =                     1
(PID.TID 0000.0001) %MON time_secondsf                =   2.4000000000000E+02
(PID.TID 0000.0001) %MON dynstat_eta_max              =   9.9431805187414E-01
(PID.TID 0000.0001) %MON dynstat_eta_min              =  -1.3586542010419E+00
(PID.TID 0000.0001) %MON dynstat_eta_mean             =  -1.7915145317381E-03
(PID.TID 0000.0001) %MON dynstat_eta_sd               =   6.5889254800099E-02
(PID.TID 0000.0001) %MON dynstat_eta_del2             =   7.8015241075125E-06
(PID.TID 0000.0001) %MON dynstat_uvel_max             =   1.2718059781896E+00
(PID.TID 0000.0001) %MON dynstat_uvel_min             =  -6.9993271560461E-01
(PID.TID 0000.0001) %MON dynstat_uvel_mean            =   3.8469444030519E-03
(PID.TID 0000.0001) %MON dynstat_uvel_sd              =   5.2155499437680E-02
(PID.TID 0000.0001) %MON dynstat_uvel_del2            =   4.4023855732966E-07
(PID.TID 0000.0001) %MON dynstat_vvel_max             =   1.8944082266793E+00
(PID.TID 0000.0001) %MON dynstat_vvel_min             =  -8.8816891489409E-01
(PID.TID 0000.0001) %MON dynstat_vvel_mean            =  -6.8591316464322E-04
(PID.TID 0000.0001) %MON dynstat_vvel_sd              =   4.8186563468677E-02
(PID.TID 0000.0001) %MON dynstat_vvel_del2            =   4.1705000072312E-07
(PID.TID 0000.0001) %MON dynstat_wvel_max             =   3.6299474355393E-02
(PID.TID 0000.0001) %MON dynstat_wvel_min             =  -3.3452207146909E-02
(PID.TID 0000.0001) %MON dynstat_wvel_mean            =  -3.0884693882598E-06
(PID.TID 0000.0001) %MON dynstat_wvel_sd              =   5.9799560404564E-04
(PID.TID 0000.0001) %MON dynstat_wvel_del2            =   9.0648837518298E-08
(PID.TID 0000.0001) %MON dynstat_theta_max            =   2.6141612842242E+01
(PID.TID 0000.0001) %MON dynstat_theta_min            =   1.4688636747896E+00
(PID.TID 0000.0001) %MON dynstat_theta_mean           =   5.5098718696076E+00
(PID.TID 0000.0001) %MON dynstat_theta_sd             =   4.7735065373210E+00
(PID.TID 0000.0001) %MON dynstat_theta_del2           =   4.0094842843102E-06
(PID.TID 0000.0001) %MON dynstat_salt_max             =   3.9184249639887E+01
(PID.TID 0000.0001) %MON dynstat_salt_min             =   3.3090165744624E+01
(PID.TID 0000.0001) %MON dynstat_salt_mean            =   3.5173372957540E+01
(PID.TID 0000.0001) %MON dynstat_salt_sd              =   3.7891595224523E-01
(PID.TID 0000.0001) %MON dynstat_salt_del2            =   4.9539394474502E-07
(PID.TID 0000.0001) %MON dynstat_sst_max              =   2.6140556845795E+01
(PID.TID 0000.0001) %MON dynstat_sst_min              =   4.0769278147922E+00
(PID.TID 0000.0001) %MON dynstat_sst_mean             =   1.9648097651558E+01
(PID.TID 0000.0001) %MON dynstat_sst_sd               =   3.6387891268629E+00
(PID.TID 0000.0001) %MON dynstat_sst_del2             =   1.9150954272520E-05
(PID.TID 0000.0001) %MON dynstat_sss_max              =   3.7335281193577E+01
(PID.TID 0000.0001) %MON dynstat_sss_min              =   3.3090165744624E+01
(PID.TID 0000.0001) %MON dynstat_sss_mean             =   3.5867991042814E+01
(PID.TID 0000.0001) %MON dynstat_sss_sd               =   4.8718475569239E-01
(PID.TID 0000.0001) %MON dynstat_sss_del2             =   5.0257359567556E-06
(PID.TID 0000.0001) %MON forcing_qnet_max             =   1.1600978682955E+03
(PID.TID 0000.0001) %MON forcing_qnet_min             =  -2.5825650999885E+02
(PID.TID 0000.0001) %MON forcing_qnet_mean            =   2.4794909435185E+02
(PID.TID 0000.0001) %MON forcing_qnet_sd              =   1.4819406180097E+02
(PID.TID 0000.0001) %MON forcing_qnet_del2            =   1.7133073052426E-03
(PID.TID 0000.0001) %MON forcing_qsw_max              =   0.0000000000000E+00
(PID.TID 0000.0001) %MON forcing_qsw_min              =   0.0000000000000E+00
(PID.TID 0000.0001) %MON forcing_qsw_mean             =   0.0000000000000E+00
(PID.TID 0000.0001) %MON forcing_qsw_sd               =   0.0000000000000E+00
(PID.TID 0000.0001) %MON forcing_qsw_del2             =   0.0000000000000E+00
(PID.TID 0000.0001) %MON forcing_empmr_max            =   2.6342200134154E-04
(PID.TID 0000.0001) %MON forcing_empmr_min            =  -7.7122086946965E-04
(PID.TID 0000.0001) %MON forcing_empmr_mean           =   1.0894847884701E-05
(PID.TID 0000.0001) %MON forcing_empmr_sd             =   9.8849480349466E-05
(PID.TID 0000.0001) %MON forcing_empmr_del2           =   2.4614836246043E-09
(PID.TID 0000.0001) %MON forcing_fu_max               =   8.4383776558134E-01
(PID.TID 0000.0001) %MON forcing_fu_min               =  -4.3380413763038E-01
(PID.TID 0000.0001) %MON forcing_fu_mean              =   6.3300579812176E-02
(PID.TID 0000.0001) %MON forcing_fu_sd                =   1.5778483182441E-01
(PID.TID 0000.0001) %MON forcing_fu_del2              =   4.1494846902830E-07
(PID.TID 0000.0001) %MON forcing_fv_max               =   4.3246026434874E-01
(PID.TID 0000.0001) %MON forcing_fv_min               =  -5.7777562083134E-01
(PID.TID 0000.0001) %MON forcing_fv_mean              =   1.0744984005289E-02
(PID.TID 0000.0001) %MON forcing_fv_sd                =   1.0406008732386E-01
(PID.TID 0000.0001) %MON forcing_fv_del2              =   3.3393887371289E-07
(PID.TID 0000.0001) %MON trAdv_CFL_u_max              =   7.7151467632432E-02
(PID.TID 0000.0001) %MON trAdv_CFL_v_max              =   1.1969517004292E-01
(PID.TID 0000.0001) %MON trAdv_CFL_w_max              =   6.5349631644322E-01
(PID.TID 0000.0001) %MON advcfl_uvel_max              =   7.7151466581945E-02
(PID.TID 0000.0001) %MON advcfl_vvel_max              =   1.1972999671543E-01
(PID.TID 0000.0001) %MON advcfl_wvel_max              =   6.5349631644322E-01
(PID.TID 0000.0001) %MON advcfl_W_hf_max              =   6.5349631644322E-01
(PID.TID 0000.0001) %MON pe_b_mean                    =  -3.7863604048234E-05
(PID.TID 0000.0001) %MON ke_max                       =   1.6048737400506E+00
(PID.TID 0000.0001) %MON ke_mean                      =   2.5099736166661E-03
(PID.TID 0000.0001) %MON ke_vol                       =   4.5818637279723E+16
(PID.TID 0000.0001) %MON vort_r_min                   =  -3.7659342105935E-04
(PID.TID 0000.0001) %MON vort_r_max                   =   5.4468094924744E-04
(PID.TID 0000.0001) %MON vort_a_mean                  =   8.2147630795899E-05
(PID.TID 0000.0001) %MON vort_a_sd                    =   1.0118743779416E-05
(PID.TID 0000.0001) %MON vort_p_mean                  =   8.4848852358470E-05
(PID.TID 0000.0001) %MON vort_p_sd                    =   3.4984655148655E-05
(PID.TID 0000.0001) %MON surfExpan_theta_mean         =   4.0462079987621E-05
(PID.TID 0000.0001) %MON surfExpan_salt_mean          =  -2.3865564775065E-04
(PID.TID 0000.0001) // =======================================================
(PID.TID 0000.0001) // End MONITOR dynamic field statistics
(PID.TID 0000.0001) // =======================================================
(PID.TID 0000.0001) // =======================================================
(PID.TID 0000.0001) // Begin OBCS MONITOR field statistics
(PID.TID 0000.0001) // =======================================================
(PID.TID 0000.0001) %MON obc_N_vVel_max               =   6.9574427194414E-01
(PID.TID 0000.0001) %MON obc_N_vVel_min               =  -3.2190138536929E-01
(PID.TID 0000.0001) %MON obc_N_vVel_mean              =   1.3214372707035E-02
(PID.TID 0000.0001) %MON obc_N_vVel_sd                =   6.4696568943744E-02
(PID.TID 0000.0001) %MON obc_N_vVel_Int               =   1.8916486142242E+08
(PID.TID 0000.0001) %MON obc_S_vVel_max               =   1.8944082266793E+00
(PID.TID 0000.0001) %MON obc_S_vVel_min               =  -2.6193006856167E-01
(PID.TID 0000.0001) %MON obc_S_vVel_mean              =   3.4426239329257E-03
(PID.TID 0000.0001) %MON obc_S_vVel_sd                =   3.5781323435683E-02
(PID.TID 0000.0001) %MON obc_S_vVel_Int               =   1.0480345500166E+08
(PID.TID 0000.0001) %MON obc_N_theta_max              =   1.6390772942977E+01
(PID.TID 0000.0001) %MON obc_N_theta_min              =   1.8895907760510E+00
(PID.TID 0000.0001) %MON obc_N_theta_mean             =   5.1589731177387E+00
(PID.TID 0000.0001) %MON obc_N_theta_sd               =   3.4827246474694E+00
(PID.TID 0000.0001) %MON obc_S_theta_max              =   2.5544838560027E+01
(PID.TID 0000.0001) %MON obc_S_theta_min              =   1.4632960371739E+00
(PID.TID 0000.0001) %MON obc_S_theta_mean             =   5.4595569751868E+00
(PID.TID 0000.0001) %MON obc_S_theta_sd               =   5.3559331643598E+00
(PID.TID 0000.0001) %MON obc_N_salt_max               =   3.5910867239595E+01
(PID.TID 0000.0001) %MON obc_N_salt_min               =   3.3295019572678E+01
(PID.TID 0000.0001) %MON obc_N_salt_mean              =   3.5114564020363E+01
(PID.TID 0000.0001) %MON obc_N_salt_sd                =   3.0984921006662E-01
(PID.TID 0000.0001) %MON obc_S_salt_max               =   3.7318339746237E+01
(PID.TID 0000.0001) %MON obc_S_salt_min               =   3.4844694366037E+01
(PID.TID 0000.0001) %MON obc_S_salt_mean              =   3.5168372866917E+01
(PID.TID 0000.0001) %MON obc_S_salt_sd                =   4.5717075682357E-01
(PID.TID 0000.0001) // =======================================================
(PID.TID 0000.0001) // End OBCS MONITOR field statistics
(PID.TID 0000.0001) // =======================================================
(PID.TID 0000.0001) // =======================================================
(PID.TID 0000.0001) // Begin MONITOR EXF statistics
(PID.TID 0000.0001) // =======================================================
(PID.TID 0000.0001) %MON exf_tsnumber                 =                     1
(PID.TID 0000.0001) %MON exf_time_sec                 =   2.4000000000000E+02
(PID.TID 0000.0001) %MON exf_ustress_max              =   8.3827961394591E-01
(PID.TID 0000.0001) %MON exf_ustress_min              =  -4.2951133246666E-01
(PID.TID 0000.0001) %MON exf_ustress_mean             =   6.3103171146770E-02
(PID.TID 0000.0001) %MON exf_ustress_sd               =   1.5694008714627E-01
(PID.TID 0000.0001) %MON exf_ustress_del2             =   4.3615570361049E-07
(PID.TID 0000.0001) %MON exf_vstress_max              =   4.1921739775119E-01
(PID.TID 0000.0001) %MON exf_vstress_min              =  -5.7314178800634E-01
(PID.TID 0000.0001) %MON exf_vstress_mean             =   1.0709358990138E-02
(PID.TID 0000.0001) %MON exf_vstress_sd               =   1.0322192631943E-01
(PID.TID 0000.0001) %MON exf_vstress_del2             =   3.2691098375247E-07
(PID.TID 0000.0001) %MON exf_hflux_max                =   1.1414723133875E+03
(PID.TID 0000.0001) %MON exf_hflux_min                =  -2.5658344683722E+02
(PID.TID 0000.0001) %MON exf_hflux_mean               =   2.4534454463683E+02
(PID.TID 0000.0001) %MON exf_hflux_sd                 =   1.4399242780085E+02
(PID.TID 0000.0001) %MON exf_hflux_del2               =   6.2107428031509E-02
(PID.TID 0000.0001) %MON exf_sflux_max                =   2.6217825120874E-07
(PID.TID 0000.0001) %MON exf_sflux_min                =  -8.9634406318636E-07
(PID.TID 0000.0001) %MON exf_sflux_mean               =   1.1723757244063E-08
(PID.TID 0000.0001) %MON exf_sflux_sd                 =   9.9263039352651E-08
(PID.TID 0000.0001) %MON exf_sflux_del2               =   1.9754485180127E-11
(PID.TID 0000.0001) %MON exf_uwind_max                =   1.9553617569472E+01
(PID.TID 0000.0001) %MON exf_uwind_min                =  -1.5156201496976E+01
(PID.TID 0000.0001) %MON exf_uwind_mean               =   2.4665495768740E+00
(PID.TID 0000.0001) %MON exf_uwind_sd                 =   6.6942562090907E+00
(PID.TID 0000.0001) %MON exf_uwind_del2               =   1.5500286514405E-03
(PID.TID 0000.0001) %MON exf_vwind_max                =   1.4720239959083E+01
(PID.TID 0000.0001) %MON exf_vwind_min                =  -1.2837166971367E+01
(PID.TID 0000.0001) %MON exf_vwind_mean               =   8.4647511623365E-01
(PID.TID 0000.0001) %MON exf_vwind_sd                 =   5.2291573120967E+00
(PID.TID 0000.0001) %MON exf_vwind_del2               =   1.1601190777141E-03
(PID.TID 0000.0001) %MON exf_wspeed_max               =   2.0604017473522E+01
(PID.TID 0000.0001) %MON exf_wspeed_min               =   1.3974432025469E-02
(PID.TID 0000.0001) %MON exf_wspeed_mean              =   7.7556149162353E+00
(PID.TID 0000.0001) %MON exf_wspeed_sd                =   4.3368164125602E+00
(PID.TID 0000.0001) %MON exf_wspeed_del2              =   1.9358619151051E-03
(PID.TID 0000.0001) %MON exf_atemp_max                =   2.9817562687684E+02
(PID.TID 0000.0001) %MON exf_atemp_min                =   2.7452615746699E+02
(PID.TID 0000.0001) %MON exf_atemp_mean               =   2.9069902558728E+02
(PID.TID 0000.0001) %MON exf_atemp_sd                 =   3.9447514879437E+00
(PID.TID 0000.0001) %MON exf_atemp_del2               =   3.7863705302095E-03
(PID.TID 0000.0001) %MON exf_aqh_max                  =   1.6815489232455E-02
(PID.TID 0000.0001) %MON exf_aqh_min                  =   2.7377682347164E-03
(PID.TID 0000.0001) %MON exf_aqh_mean                 =   9.4275843487294E-03
(PID.TID 0000.0001) %MON exf_aqh_sd                   =   2.8734848400241E-03
(PID.TID 0000.0001) %MON exf_aqh_del2                 =   2.0713390119109E-06
(PID.TID 0000.0001) %MON exf_lwflux_max               =   1.5159279032158E+02
(PID.TID 0000.0001) %MON exf_lwflux_min               =   1.6653091575519E+01
(PID.TID 0000.0001) %MON exf_lwflux_mean              =   7.0480759254126E+01
(PID.TID 0000.0001) %MON exf_lwflux_sd                =   2.0882633204322E+01
(PID.TID 0000.0001) %MON exf_lwflux_del2              =   1.5616357663038E-02
(PID.TID 0000.0001) %MON exf_evap_max                 =   2.6944470896040E-07
(PID.TID 0000.0001) %MON exf_evap_min                 =  -9.1098717080725E-08
(PID.TID 0000.0001) %MON exf_evap_mean                =   5.9553240114654E-08
(PID.TID 0000.0001) %MON exf_evap_sd                  =   4.2383480419572E-08
(PID.TID 0000.0001) %MON exf_evap_del2                =   1.5931762508312E-11
(PID.TID 0000.0001) %MON exf_precip_max               =   1.0681274720082E-06
(PID.TID 0000.0001) %MON exf_precip_min               =   0.0000000000000E+00
(PID.TID 0000.0001) %MON exf_precip_mean              =   4.6241003465372E-08
(PID.TID 0000.0001) %MON exf_precip_sd                =   9.5180213938006E-08
(PID.TID 0000.0001) %MON exf_precip_del2              =   2.0777283742475E-11
(PID.TID 0000.0001) %MON exf_swflux_max               =   0.0000000000000E+00
(PID.TID 0000.0001) %MON exf_swflux_min               =   0.0000000000000E+00
(PID.TID 0000.0001) %MON exf_swflux_mean              =   0.0000000000000E+00
(PID.TID 0000.0001) %MON exf_swflux_sd                =   0.0000000000000E+00
(PID.TID 0000.0001) %MON exf_swflux_del2              =   0.0000000000000E+00
(PID.TID 0000.0001) %MON exf_swdown_max               =   0.0000000000000E+00
(PID.TID 0000.0001) %MON exf_swdown_min               =   0.0000000000000E+00
(PID.TID 0000.0001) %MON exf_swdown_mean              =   0.0000000000000E+00
(PID.TID 0000.0001) %MON exf_swdown_sd                =   0.0000000000000E+00
(PID.TID 0000.0001) %MON exf_swdown_del2              =   0.0000000000000E+00
(PID.TID 0000.0001) %MON exf_lwdown_max               =   3.9865640868250E+02
(PID.TID 0000.0001) %MON exf_lwdown_min               =   2.2781411885010E+02
(PID.TID 0000.0001) %MON exf_lwdown_mean              =   3.4445380950638E+02
(PID.TID 0000.0001) %MON exf_lwdown_sd                =   2.5672720097867E+01
(PID.TID 0000.0001) %MON exf_lwdown_del2              =   7.3704705759372E-02
(PID.TID 0000.0001) %MON exf_apressure_max            =   1.0278691686358E+05
(PID.TID 0000.0001) %MON exf_apressure_min            =   9.9978539078627E+04
(PID.TID 0000.0001) %MON exf_apressure_mean           =   1.0215985608694E+05
(PID.TID 0000.0001) %MON exf_apressure_sd             =   5.0058207786859E+02
(PID.TID 0000.0001) %MON exf_apressure_del2           =   2.1827014851788E+01
(PID.TID 0000.0001) %MON exf_runoff_max               =   4.4374791284855E-08
(PID.TID 0000.0001) %MON exf_runoff_min               =   0.0000000000000E+00
(PID.TID 0000.0001) %MON exf_runoff_mean              =   1.5884794052193E-09
(PID.TID 0000.0001) %MON exf_runoff_sd                =   5.3901957917178E-09
(PID.TID 0000.0001) %MON exf_runoff_del2              =   1.1512509897985E-12
(PID.TID 0000.0001) // =======================================================
(PID.TID 0000.0001) // End MONITOR EXF statistics
(PID.TID 0000.0001) // =======================================================
 cg2d: Sum(rhs),rhsMax =   1.19494929877160E+02  1.13557349723102E-01
(PID.TID 0000.0001)      cg2d_init_res =   1.39151356643393E+01
(PID.TID 0000.0001)      cg2d_iters(min,last) =      -1     323
(PID.TID 0000.0001)      cg2d_last_res =   6.84671987752922E-12
(PID.TID 0000.0001) // =======================================================
(PID.TID 0000.0001) // Begin MONITOR dynamic field statistics
(PID.TID 0000.0001) // =======================================================
(PID.TID 0000.0001) %MON time_tsnumber                =                     2
(PID.TID 0000.0001) %MON time_secondsf                =   4.8000000000000E+02
(PID.TID 0000.0001) %MON dynstat_eta_max              =   8.7300361387007E-01
(PID.TID 0000.0001) %MON dynstat_eta_min              =  -1.5315210635080E+00
(PID.TID 0000.0001) %MON dynstat_eta_mean             =  -4.0636761606451E-03
(PID.TID 0000.0001) %MON dynstat_eta_sd               =   9.7733990301411E-02
(PID.TID 0000.0001) %MON dynstat_eta_del2             =   3.4503544691182E-06
(PID.TID 0000.0001) %MON dynstat_uvel_max             =   1.2822075851528E+00
(PID.TID 0000.0001) %MON dynstat_uvel_min             =  -7.0565323790223E-01
(PID.TID 0000.0001) %MON dynstat_uvel_mean            =   3.7653220719892E-03
(PID.TID 0000.0001) %MON dynstat_uvel_sd              =   5.2263000145264E-02
(PID.TID 0000.0001) %MON dynstat_uvel_del2            =   4.6222309391715E-07
(PID.TID 0000.0001) %MON dynstat_vvel_max             =   1.9227748132589E+00
(PID.TID 0000.0001) %MON dynstat_vvel_min             =  -8.9318075524365E-01
(PID.TID 0000.0001) %MON dynstat_vvel_mean            =  -1.1639085104155E-03
(PID.TID 0000.0001) %MON dynstat_vvel_sd              =   4.8158156785659E-02
(PID.TID 0000.0001) %MON dynstat_vvel_del2            =   4.2801020880061E-07
(PID.TID 0000.0001) %MON dynstat_wvel_max             =   3.7564761048246E-02
(PID.TID 0000.0001) %MON dynstat_wvel_min             =  -3.2825828879103E-02
(PID.TID 0000.0001) %MON dynstat_wvel_mean            =  -4.3165097998948E-06
(PID.TID 0000.0001) %MON dynstat_wvel_sd              =   5.8531725501331E-04
(PID.TID 0000.0001) %MON dynstat_wvel_del2            =   9.0300932454679E-08
(PID.TID 0000.0001) %MON dynstat_theta_max            =   2.6141375868251E+01
(PID.TID 0000.0001) %MON dynstat_theta_min            =   1.4688637571530E+00
(PID.TID 0000.0001) %MON dynstat_theta_mean           =   5.5098630030022E+00
(PID.TID 0000.0001) %MON dynstat_theta_sd             =   4.7734765003635E+00
(PID.TID 0000.0001) %MON dynstat_theta_del2           =   4.0037926764135E-06
(PID.TID 0000.0001) %MON dynstat_salt_max             =   3.9182777431591E+01
(PID.TID 0000.0001) %MON dynstat_salt_min             =   3.3090730117736E+01
(PID.TID 0000.0001) %MON dynstat_salt_mean            =   3.5173371411110E+01
(PID.TID 0000.0001) %MON dynstat_salt_sd              =   3.7891402702232E-01
(PID.TID 0000.0001) %MON dynstat_salt_del2            =   4.9557274128343E-07
(PID.TID 0000.0001) %MON dynstat_sst_max              =   2.6139521152364E+01
(PID.TID 0000.0001) %MON dynstat_sst_min              =   4.0626033569778E+00
(PID.TID 0000.0001) %MON dynstat_sst_mean             =   1.9646304848190E+01
(PID.TID 0000.0001) %MON dynstat_sst_sd               =   3.6387970361875E+00
(PID.TID 0000.0001) %MON dynstat_sst_del2             =   1.9096777171637E-05
(PID.TID 0000.0001) %MON dynstat_sss_max              =   3.7335396141069E+01
(PID.TID 0000.0001) %MON dynstat_sss_min              =   3.3090730117736E+01
(PID.TID 0000.0001) %MON dynstat_sss_mean             =   3.5868031241842E+01
(PID.TID 0000.0001) %MON dynstat_sss_sd               =   4.8718970040453E-01
(PID.TID 0000.0001) %MON dynstat_sss_del2             =   5.0100076178382E-06
(PID.TID 0000.0001) %MON forcing_qnet_max             =   1.1590199506398E+03
(PID.TID 0000.0001) %MON forcing_qnet_min             =  -2.6188092330411E+02
(PID.TID 0000.0001) %MON forcing_qnet_mean            =   2.4696745710638E+02
(PID.TID 0000.0001) %MON forcing_qnet_sd              =   1.4699273621625E+02
(PID.TID 0000.0001) %MON forcing_qnet_del2            =   1.7023505487466E-03
(PID.TID 0000.0001) %MON forcing_qsw_max              =   0.0000000000000E+00
(PID.TID 0000.0001) %MON forcing_qsw_min              =   0.0000000000000E+00
(PID.TID 0000.0001) %MON forcing_qsw_mean             =   0.0000000000000E+00
(PID.TID 0000.0001) %MON forcing_qsw_sd               =   0.0000000000000E+00
(PID.TID 0000.0001) %MON forcing_qsw_del2             =   0.0000000000000E+00
(PID.TID 0000.0001) %MON forcing_empmr_max            =   2.6217825120874E-04
(PID.TID 0000.0001) %MON forcing_empmr_min            =  -8.9634406318636E-04
(PID.TID 0000.0001) %MON forcing_empmr_mean           =   1.1723757244063E-05
(PID.TID 0000.0001) %MON forcing_empmr_sd             =   9.9263039352651E-05
(PID.TID 0000.0001) %MON forcing_empmr_del2           =   2.4829981727877E-09
(PID.TID 0000.0001) %MON forcing_fu_max               =   8.3753259072543E-01
(PID.TID 0000.0001) %MON forcing_fu_min               =  -4.2948401808675E-01
(PID.TID 0000.0001) %MON forcing_fu_mean              =   6.3159629756268E-02
(PID.TID 0000.0001) %MON forcing_fu_sd                =   1.5699859039624E-01
(PID.TID 0000.0001) %MON forcing_fu_del2              =   3.9852685831753E-07
(PID.TID 0000.0001) %MON forcing_fv_max               =   4.1893550069742E-01
(PID.TID 0000.0001) %MON forcing_fv_min               =  -5.7502273365892E-01
(PID.TID 0000.0001) %MON forcing_fv_mean              =   1.0688680219866E-02
(PID.TID 0000.0001) %MON forcing_fv_sd                =   1.0335022492177E-01
(PID.TID 0000.0001) %MON forcing_fv_del2              =   3.0679596741660E-07
(PID.TID 0000.0001) %MON trAdv_CFL_u_max              =   7.7792512377958E-02
(PID.TID 0000.0001) %MON trAdv_CFL_v_max              =   1.2148746768836E-01
(PID.TID 0000.0001) %MON trAdv_CFL_w_max              =   5.1783484127218E-01
(PID.TID 0000.0001) %MON advcfl_uvel_max              =   7.7792511318743E-02
(PID.TID 0000.0001) %MON advcfl_vvel_max              =   1.2152281585028E-01
(PID.TID 0000.0001) %MON advcfl_wvel_max              =   5.1937144317507E-01
(PID.TID 0000.0001) %MON advcfl_W_hf_max              =   5.2091719151785E-01
(PID.TID 0000.0001) %MON pe_b_mean                    =  -8.6383700996197E-05
(PID.TID 0000.0001) %MON ke_max                       =   1.6901615978485E+00
(PID.TID 0000.0001) %MON ke_mean                      =   2.5143145499577E-03
(PID.TID 0000.0001) %MON ke_vol                       =   4.5818637279723E+16
(PID.TID 0000.0001) %MON vort_r_min                   =  -4.3054263183809E-04
(PID.TID 0000.0001) %MON vort_r_max                   =   6.0071483181899E-04
(PID.TID 0000.0001) %MON vort_a_mean                  =   8.2147630071748E-05
(PID.TID 0000.0001) %MON vort_a_sd                    =   1.0121535925277E-05
(PID.TID 0000.0001) %MON vort_p_mean                  =   8.4848851610507E-05
(PID.TID 0000.0001) %MON vort_p_sd                    =   3.4982238225406E-05
(PID.TID 0000.0001) %MON surfExpan_theta_mean         =   2.3425779046461E-05
(PID.TID 0000.0001) %MON surfExpan_salt_mean          =  -3.1007208257083E-04
(PID.TID 0000.0001) // =======================================================
(PID.TID 0000.0001) // End MONITOR dynamic field statistics
(PID.TID 0000.0001) // =======================================================
(PID.TID 0000.0001) // =======================================================
(PID.TID 0000.0001) // Begin OBCS MONITOR field statistics
(PID.TID 0000.0001) // =======================================================
(PID.TID 0000.0001) %MON obc_N_vVel_max               =   6.9568554767849E-01
(PID.TID 0000.0001) %MON obc_N_vVel_min               =  -3.2199381926990E-01
(PID.TID 0000.0001) %MON obc_N_vVel_mean              =   1.3307490691961E-02
(PID.TID 0000.0001) %MON obc_N_vVel_sd                =   6.4696469699489E-02
(PID.TID 0000.0001) %MON obc_N_vVel_Int               =   1.9049785324164E+08
(PID.TID 0000.0001) %MON obc_S_vVel_max               =   1.9227748132589E+00
(PID.TID 0000.0001) %MON obc_S_vVel_min               =  -2.6207127723095E-01
(PID.TID 0000.0001) %MON obc_S_vVel_mean              =   2.7429399846448E-03
(PID.TID 0000.0001) %MON obc_S_vVel_sd                =   3.5810089513638E-02
(PID.TID 0000.0001) %MON obc_S_vVel_Int               =   8.3503046761390E+07
(PID.TID 0000.0001) %MON obc_N_theta_max              =   1.6390684840790E+01
(PID.TID 0000.0001) %MON obc_N_theta_min              =   1.8895908251163E+00
(PID.TID 0000.0001) %MON obc_N_theta_mean             =   5.1589657335887E+00
(PID.TID 0000.0001) %MON obc_N_theta_sd               =   3.4827153546990E+00
(PID.TID 0000.0001) %MON obc_S_theta_max              =   2.5544735811248E+01
(PID.TID 0000.0001) %MON obc_S_theta_min              =   1.4632964334612E+00
(PID.TID 0000.0001) %MON obc_S_theta_mean             =   5.4595561701622E+00
(PID.TID 0000.0001) %MON obc_S_theta_sd               =   5.3559292930331E+00
(PID.TID 0000.0001) %MON obc_N_salt_max               =   3.5910866831232E+01
(PID.TID 0000.0001) %MON obc_N_salt_min               =   3.3295025075312E+01
(PID.TID 0000.0001) %MON obc_N_salt_mean              =   3.5114563724377E+01
(PID.TID 0000.0001) %MON obc_N_salt_sd                =   3.0984909062739E-01
(PID.TID 0000.0001) %MON obc_S_salt_max               =   3.7318332861853E+01
(PID.TID 0000.0001) %MON obc_S_salt_min               =   3.4844694418258E+01
(PID.TID 0000.0001) %MON obc_S_salt_mean              =   3.5168372795001E+01
(PID.TID 0000.0001) %MON obc_S_salt_sd                =   4.5717040571237E-01
(PID.TID 0000.0001) // =======================================================
(PID.TID 0000.0001) // End OBCS MONITOR field statistics
(PID.TID 0000.0001) // =======================================================
(PID.TID 0000.0001) // =======================================================
(PID.TID 0000.0001) // Begin MONITOR EXF statistics
(PID.TID 0000.0001) // =======================================================
(PID.TID 0000.0001) %MON exf_tsnumber                 =                     2
(PID.TID 0000.0001) %MON exf_time_sec                 =   4.8000000000000E+02
(PID.TID 0000.0001) %MON exf_ustress_max              =   8.3767855970246E-01
(PID.TID 0000.0001) %MON exf_ustress_min              =  -4.2588806730272E-01
(PID.TID 0000.0001) %MON exf_ustress_mean             =   6.3015877313274E-02
(PID.TID 0000.0001) %MON exf_ustress_sd               =   1.5632345792287E-01
(PID.TID 0000.0001) %MON exf_ustress_del2             =   4.2179053024744E-07
(PID.TID 0000.0001) %MON exf_vstress_max              =   4.0928993941928E-01
(PID.TID 0000.0001) %MON exf_vstress_min              =  -5.7022701913485E-01
(PID.TID 0000.0001) %MON exf_vstress_mean             =   1.0672344145067E-02
(PID.TID 0000.0001) %MON exf_vstress_sd               =   1.0265989381669E-01
(PID.TID 0000.0001) %MON exf_vstress_del2             =   3.0641329477964E-07
(PID.TID 0000.0001) %MON exf_hflux_max                =   1.1410681738327E+03
(PID.TID 0000.0001) %MON exf_hflux_min                =  -2.6041842785060E+02
(PID.TID 0000.0001) %MON exf_hflux_mean               =   2.4435151328010E+02
(PID.TID 0000.0001) %MON exf_hflux_sd                 =   1.4316315320732E+02
(PID.TID 0000.0001) %MON exf_hflux_del2               =   6.1826069491722E-02
(PID.TID 0000.0001) %MON exf_sflux_max                =   2.6116478456894E-07
(PID.TID 0000.0001) %MON exf_sflux_min                =  -1.0214097398978E-06
(PID.TID 0000.0001) %MON exf_sflux_mean               =   1.2571855837539E-08
(PID.TID 0000.0001) %MON exf_sflux_sd                 =   1.0126695498524E-07
(PID.TID 0000.0001) %MON exf_sflux_del2               =   1.9573425400823E-11
(PID.TID 0000.0001) %MON exf_uwind_max                =   1.9559450461243E+01
(PID.TID 0000.0001) %MON exf_uwind_min                =  -1.5111819031311E+01
(PID.TID 0000.0001) %MON exf_uwind_mean               =   2.4675556878165E+00
(PID.TID 0000.0001) %MON exf_uwind_sd                 =   6.6870781086109E+00
(PID.TID 0000.0001) %MON exf_uwind_del2               =   1.5481078293320E-03
(PID.TID 0000.0001) %MON exf_vwind_max                =   1.4603616916512E+01
(PID.TID 0000.0001) %MON exf_vwind_min                =  -1.2819773564751E+01
(PID.TID 0000.0001) %MON exf_vwind_mean               =   8.4817966358616E-01
(PID.TID 0000.0001) %MON exf_vwind_sd                 =   5.2165361717921E+00
(PID.TID 0000.0001) %MON exf_vwind_del2               =   1.1577699270374E-03
(PID.TID 0000.0001) %MON exf_wspeed_max               =   2.0544619450241E+01
(PID.TID 0000.0001) %MON exf_wspeed_min               =   1.4208992096912E-02
(PID.TID 0000.0001) %MON exf_wspeed_mean              =   7.7450629386637E+00
(PID.TID 0000.0001) %MON exf_wspeed_sd                =   4.3303005845568E+00
(PID.TID 0000.0001) %MON exf_wspeed_del2              =   1.9329296213977E-03
(PID.TID 0000.0001) %MON exf_atemp_max                =   2.9817342958842E+02
(PID.TID 0000.0001) %MON exf_atemp_min                =   2.7450055625835E+02
(PID.TID 0000.0001) %MON exf_atemp_mean               =   2.9069590438108E+02
(PID.TID 0000.0001) %MON exf_atemp_sd                 =   3.9442154521307E+00
(PID.TID 0000.0001) %MON exf_atemp_del2               =   3.7857127918270E-03
(PID.TID 0000.0001) %MON exf_aqh_max                  =   1.6808502931582E-02
(PID.TID 0000.0001) %MON exf_aqh_min                  =   2.7354735369524E-03
(PID.TID 0000.0001) %MON exf_aqh_mean                 =   9.4263961959153E-03
(PID.TID 0000.0001) %MON exf_aqh_sd                   =   2.8729783809480E-03
(PID.TID 0000.0001) %MON exf_aqh_del2                 =   2.0710127639723E-06
(PID.TID 0000.0001) %MON exf_lwflux_max               =   1.5112484710508E+02
(PID.TID 0000.0001) %MON exf_lwflux_min               =   1.5989252233800E+01
(PID.TID 0000.0001) %MON exf_lwflux_mean              =   6.9700623217878E+01
(PID.TID 0000.0001) %MON exf_lwflux_sd                =   2.1124387168268E+01
(PID.TID 0000.0001) %MON exf_lwflux_del2              =   1.5481082301543E-02
(PID.TID 0000.0001) %MON exf_evap_max                 =   2.7064050487744E-07
(PID.TID 0000.0001) %MON exf_evap_min                 =  -9.1568021533752E-08
(PID.TID 0000.0001) %MON exf_evap_mean                =   5.9477472879282E-08
(PID.TID 0000.0001) %MON exf_evap_sd                  =   4.2284520168690E-08
(PID.TID 0000.0001) %MON exf_evap_del2                =   1.5904563463173E-11
(PID.TID 0000.0001) %MON exf_precip_max               =   1.1937895275386E-06
(PID.TID 0000.0001) %MON exf_precip_min               =   0.0000000000000E+00
(PID.TID 0000.0001) %MON exf_precip_mean              =   4.5317137636524E-08
(PID.TID 0000.0001) %MON exf_precip_sd                =   9.8966652401899E-08
(PID.TID 0000.0001) %MON exf_precip_del2              =   2.0818484066257E-11
(PID.TID 0000.0001) %MON exf_swflux_max               =   0.0000000000000E+00
(PID.TID 0000.0001) %MON exf_swflux_min               =   0.0000000000000E+00
(PID.TID 0000.0001) %MON exf_swflux_mean              =   0.0000000000000E+00
(PID.TID 0000.0001) %MON exf_swflux_sd                =   0.0000000000000E+00
(PID.TID 0000.0001) %MON exf_swflux_del2              =   0.0000000000000E+00
(PID.TID 0000.0001) %MON exf_swdown_max               =   0.0000000000000E+00
(PID.TID 0000.0001) %MON exf_swdown_min               =   0.0000000000000E+00
(PID.TID 0000.0001) %MON exf_swdown_mean              =   0.0000000000000E+00
(PID.TID 0000.0001) %MON exf_swdown_sd                =   0.0000000000000E+00
(PID.TID 0000.0001) %MON exf_swdown_del2              =   0.0000000000000E+00
(PID.TID 0000.0001) %MON exf_lwdown_max               =   3.9916214768056E+02
(PID.TID 0000.0001) %MON exf_lwdown_min               =   2.2827070729266E+02
(PID.TID 0000.0001) %MON exf_lwdown_mean              =   3.4524786348663E+02
(PID.TID 0000.0001) %MON exf_lwdown_sd                =   2.6075858085817E+01
(PID.TID 0000.0001) %MON exf_lwdown_del2              =   7.3873189238975E-02
(PID.TID 0000.0001) %MON exf_apressure_max            =   1.0278842789597E+05
(PID.TID 0000.0001) %MON exf_apressure_min            =   9.9983892237062E+04
(PID.TID 0000.0001) %MON exf_apressure_mean           =   1.0216063339349E+05
(PID.TID 0000.0001) %MON exf_apressure_sd             =   5.0022107601392E+02
(PID.TID 0000.0001) %MON exf_apressure_del2           =   2.1827183560726E+01
(PID.TID 0000.0001) %MON exf_runoff_max               =   4.4374791284855E-08
(PID.TID 0000.0001) %MON exf_runoff_min               =   0.0000000000000E+00
(PID.TID 0000.0001) %MON exf_runoff_mean              =   1.5884794052193E-09
(PID.TID 0000.0001) %MON exf_runoff_sd                =   5.3901957917178E-09
(PID.TID 0000.0001) %MON exf_runoff_del2              =   1.1512509897985E-12
(PID.TID 0000.0001) // =======================================================
(PID.TID 0000.0001) // End MONITOR EXF statistics
(PID.TID 0000.0001) // =======================================================
 cg2d: Sum(rhs),rhsMax =   2.00361346372482E+02  6.09899308908573E-02
(PID.TID 0000.0001)      cg2d_init_res =   3.21754851538049E+00
(PID.TID 0000.0001)      cg2d_iters(min,last) =      -1     320
(PID.TID 0000.0001)      cg2d_last_res =   6.61463529718985E-12
(PID.TID 0000.0001) // =======================================================
(PID.TID 0000.0001) // Begin MONITOR dynamic field statistics
(PID.TID 0000.0001) // =======================================================
(PID.TID 0000.0001) %MON time_tsnumber                =                     3
(PID.TID 0000.0001) %MON time_secondsf                =   7.2000000000000E+02
(PID.TID 0000.0001) %MON dynstat_eta_max              =   9.5747661166502E-01
(PID.TID 0000.0001) %MON dynstat_eta_min              =  -1.5344872232044E+00
(PID.TID 0000.0001) %MON dynstat_eta_mean             =  -6.8137085615733E-03
(PID.TID 0000.0001) %MON dynstat_eta_sd               =   1.2653931667224E-01
(PID.TID 0000.0001) %MON dynstat_eta_del2             =   2.9317845462476E-06
(PID.TID 0000.0001) %MON dynstat_uvel_max             =   1.2896873844311E+00
(PID.TID 0000.0001) %MON dynstat_uvel_min             =  -8.9373750156678E-01
(PID.TID 0000.0001) %MON dynstat_uvel_mean            =   3.6488362099244E-03
(PID.TID 0000.0001) %MON dynstat_uvel_sd              =   5.2337504980801E-02
(PID.TID 0000.0001) %MON dynstat_uvel_del2            =   4.6330031729368E-07
(PID.TID 0000.0001) %MON dynstat_vvel_max             =   1.9873820750718E+00
(PID.TID 0000.0001) %MON dynstat_vvel_min             =  -8.9822822072780E-01
(PID.TID 0000.0001) %MON dynstat_vvel_mean            =  -1.6091875943411E-03
(PID.TID 0000.0001) %MON dynstat_vvel_sd              =   4.8200968424395E-02
(PID.TID 0000.0001) %MON dynstat_vvel_del2            =   4.2469001903416E-07
(PID.TID 0000.0001) %MON dynstat_wvel_max             =   3.7202169740556E-02
(PID.TID 0000.0001) %MON dynstat_wvel_min             =  -3.2622598053498E-02
(PID.TID 0000.0001) %MON dynstat_wvel_mean            =  -5.5391214022800E-06
(PID.TID 0000.0001) %MON dynstat_wvel_sd              =   5.8964576748603E-04
(PID.TID 0000.0001) %MON dynstat_wvel_del2            =   8.9135088628144E-08
(PID.TID 0000.0001) %MON dynstat_theta_max            =   2.6141063262502E+01
(PID.TID 0000.0001) %MON dynstat_theta_min            =   1.4688638492136E+00
(PID.TID 0000.0001) %MON dynstat_theta_mean           =   5.5098555805058E+00
(PID.TID 0000.0001) %MON dynstat_theta_sd             =   4.7734479796991E+00
(PID.TID 0000.0001) %MON dynstat_theta_del2           =   4.0023706910464E-06
(PID.TID 0000.0001) %MON dynstat_salt_max             =   3.9180974990976E+01
(PID.TID 0000.0001) %MON dynstat_salt_min             =   3.3091332686488E+01
(PID.TID 0000.0001) %MON dynstat_salt_mean            =   3.5173370049217E+01
(PID.TID 0000.0001) %MON dynstat_salt_sd              =   3.7891249005428E-01
(PID.TID 0000.0001) %MON dynstat_salt_del2            =   4.9706695470250E-07
(PID.TID 0000.0001) %MON dynstat_sst_max              =   2.6138628088285E+01
(PID.TID 0000.0001) %MON dynstat_sst_min              =   4.0484304490160E+00
(PID.TID 0000.0001) %MON dynstat_sst_mean             =   1.9644816779881E+01
(PID.TID 0000.0001) %MON dynstat_sst_sd               =   3.6388228743773E+00
(PID.TID 0000.0001) %MON dynstat_sst_del2             =   1.9071768307595E-05
(PID.TID 0000.0001) %MON dynstat_sss_max              =   3.7335489474754E+01
(PID.TID 0000.0001) %MON dynstat_sss_min              =   3.3091332686488E+01
(PID.TID 0000.0001) %MON dynstat_sss_mean             =   3.5868071003171E+01
(PID.TID 0000.0001) %MON dynstat_sss_sd               =   4.8719138155003E-01
(PID.TID 0000.0001) %MON dynstat_sss_del2             =   4.9960783008985E-06
(PID.TID 0000.0001) %MON forcing_qnet_max             =   1.1587146615943E+03
(PID.TID 0000.0001) %MON forcing_qnet_min             =  -2.6562035330250E+02
(PID.TID 0000.0001) %MON forcing_qnet_mean            =   2.4605065511913E+02
(PID.TID 0000.0001) %MON forcing_qnet_sd              =   1.4593277228861E+02
(PID.TID 0000.0001) %MON forcing_qnet_del2            =   1.6903678345008E-03
(PID.TID 0000.0001) %MON forcing_qsw_max              =   0.0000000000000E+00
(PID.TID 0000.0001) %MON forcing_qsw_min              =   0.0000000000000E+00
(PID.TID 0000.0001) %MON forcing_qsw_mean             =   0.0000000000000E+00
(PID.TID 0000.0001) %MON forcing_qsw_sd               =   0.0000000000000E+00
(PID.TID 0000.0001) %MON forcing_qsw_del2             =   0.0000000000000E+00
(PID.TID 0000.0001) %MON forcing_empmr_max            =   2.6116478456894E-04
(PID.TID 0000.0001) %MON forcing_empmr_min            =  -1.0214097398978E-03
(PID.TID 0000.0001) %MON forcing_empmr_mean           =   1.2571855837539E-05
(PID.TID 0000.0001) %MON forcing_empmr_sd             =   1.0126695498524E-04
(PID.TID 0000.0001) %MON forcing_empmr_del2           =   2.5459114859082E-09
(PID.TID 0000.0001) %MON forcing_fu_max               =   8.3622023031085E-01
(PID.TID 0000.0001) %MON forcing_fu_min               =  -4.2581577720112E-01
(PID.TID 0000.0001) %MON forcing_fu_mean              =   6.3072656798251E-02
(PID.TID 0000.0001) %MON forcing_fu_sd                =   1.5638220459407E-01
(PID.TID 0000.0001) %MON forcing_fu_del2              =   3.8123414039371E-07
(PID.TID 0000.0001) %MON forcing_fv_max               =   4.0884291794125E-01
(PID.TID 0000.0001) %MON forcing_fv_min               =  -5.7257051676809E-01
(PID.TID 0000.0001) %MON forcing_fv_mean              =   1.0651913452531E-02
(PID.TID 0000.0001) %MON forcing_fv_sd                =   1.0278903071442E-01
(PID.TID 0000.0001) %MON forcing_fv_del2              =   2.8585239589209E-07
(PID.TID 0000.0001) %MON trAdv_CFL_u_max              =   7.8246317506456E-02
(PID.TID 0000.0001) %MON trAdv_CFL_v_max              =   1.2556957474416E-01
(PID.TID 0000.0001) %MON trAdv_CFL_w_max              =   5.0132331798866E-01
(PID.TID 0000.0001) %MON advcfl_uvel_max              =   7.8246316441062E-02
(PID.TID 0000.0001) %MON advcfl_vvel_max              =   1.2560611064161E-01
(PID.TID 0000.0001) %MON advcfl_wvel_max              =   5.0281092427349E-01
(PID.TID 0000.0001) %MON advcfl_W_hf_max              =   5.0430738535764E-01
(PID.TID 0000.0001) %MON pe_b_mean                    =  -1.4503502826803E-04
(PID.TID 0000.0001) %MON ke_max                       =   1.7552873607601E+00
(PID.TID 0000.0001) %MON ke_mean                      =   2.5204183600168E-03
(PID.TID 0000.0001) %MON ke_vol                       =   4.5818637279723E+16
(PID.TID 0000.0001) %MON vort_r_min                   =  -4.6831362539949E-04
(PID.TID 0000.0001) %MON vort_r_max                   =   6.0348955952895E-04
(PID.TID 0000.0001) %MON vort_a_mean                  =   8.2147629334870E-05
(PID.TID 0000.0001) %MON vort_a_sd                    =   1.0122352639256E-05
(PID.TID 0000.0001) %MON vort_p_mean                  =   8.4848850849399E-05
(PID.TID 0000.0001) %MON vort_p_sd                    =   3.4978363759212E-05
(PID.TID 0000.0001) %MON surfExpan_theta_mean         =  -1.1740659970027E-05
(PID.TID 0000.0001) %MON surfExpan_salt_mean          =  -3.8327641656155E-04
(PID.TID 0000.0001) // =======================================================
(PID.TID 0000.0001) // End MONITOR dynamic field statistics
(PID.TID 0000.0001) // =======================================================
(PID.TID 0000.0001) // =======================================================
(PID.TID 0000.0001) // Begin OBCS MONITOR field statistics
(PID.TID 0000.0001) // =======================================================
(PID.TID 0000.0001) %MON obc_N_vVel_max               =   6.9561473952318E-01
(PID.TID 0000.0001) %MON obc_N_vVel_min               =  -3.2210984061472E-01
(PID.TID 0000.0001) %MON obc_N_vVel_mean              =   1.3386422536623E-02
(PID.TID 0000.0001) %MON obc_N_vVel_sd                =   6.4693635573124E-02
(PID.TID 0000.0001) %MON obc_N_vVel_Int               =   1.9162776926476E+08
(PID.TID 0000.0001) %MON obc_S_vVel_max               =   1.9873820750718E+00
(PID.TID 0000.0001) %MON obc_S_vVel_min               =  -2.6220596923867E-01
(PID.TID 0000.0001) %MON obc_S_vVel_mean              =   2.0408797773561E-03
(PID.TID 0000.0001) %MON obc_S_vVel_sd                =   3.5842793074871E-02
(PID.TID 0000.0001) %MON obc_S_vVel_Int               =   6.2130298306548E+07
(PID.TID 0000.0001) %MON obc_N_theta_max              =   1.6390596738603E+01
(PID.TID 0000.0001) %MON obc_N_theta_min              =   1.8895908741817E+00
(PID.TID 0000.0001) %MON obc_N_theta_mean             =   5.1589583494387E+00
(PID.TID 0000.0001) %MON obc_N_theta_sd               =   3.4827060621667E+00
(PID.TID 0000.0001) %MON obc_S_theta_max              =   2.5544633062468E+01
(PID.TID 0000.0001) %MON obc_S_theta_min              =   1.4632968297484E+00
(PID.TID 0000.0001) %MON obc_S_theta_mean             =   5.4595553651376E+00
(PID.TID 0000.0001) %MON obc_S_theta_sd               =   5.3559254217424E+00
(PID.TID 0000.0001) %MON obc_N_salt_max               =   3.5910866422869E+01
(PID.TID 0000.0001) %MON obc_N_salt_min               =   3.3295030577945E+01
(PID.TID 0000.0001) %MON obc_N_salt_mean              =   3.5114563428390E+01
(PID.TID 0000.0001) %MON obc_N_salt_sd                =   3.0984897121412E-01
(PID.TID 0000.0001) %MON obc_S_salt_max               =   3.7318325977469E+01
(PID.TID 0000.0001) %MON obc_S_salt_min               =   3.4844694470478E+01
(PID.TID 0000.0001) %MON obc_S_salt_mean              =   3.5168372723084E+01
(PID.TID 0000.0001) %MON obc_S_salt_sd                =   4.5717005460578E-01
(PID.TID 0000.0001) // =======================================================
(PID.TID 0000.0001) // End OBCS MONITOR field statistics
(PID.TID 0000.0001) // =======================================================
(PID.TID 0000.0001) // =======================================================
(PID.TID 0000.0001) // Begin MONITOR EXF statistics
(PID.TID 0000.0001) // =======================================================
(PID.TID 0000.0001) %MON exf_tsnumber                 =                     3
(PID.TID 0000.0001) %MON exf_time_sec                 =   7.2000000000000E+02
(PID.TID 0000.0001) %MON exf_ustress_max              =   8.3606699623136E-01
(PID.TID 0000.0001) %MON exf_ustress_min              =  -4.2259186080863E-01
(PID.TID 0000.0001) %MON exf_ustress_mean             =   6.2970113306117E-02
(PID.TID 0000.0001) %MON exf_ustress_sd               =   1.5583991025957E-01
(PID.TID 0000.0001) %MON exf_ustress_del2             =   4.0624648319944E-07
(PID.TID 0000.0001) %MON exf_vstress_max              =   4.0174970886229E-01
(PID.TID 0000.0001) %MON exf_vstress_min              =  -5.6774815632614E-01
(PID.TID 0000.0001) %MON exf_vstress_mean             =   1.0653216965031E-02
(PID.TID 0000.0001) %MON exf_vstress_sd               =   1.0222107314287E-01
(PID.TID 0000.0001) %MON exf_vstress_del2             =   2.8955269821821E-07
(PID.TID 0000.0001) %MON exf_hflux_max                =   1.1411915077863E+03
(PID.TID 0000.0001) %MON exf_hflux_min                =  -2.6437248691064E+02
(PID.TID 0000.0001) %MON exf_hflux_mean               =   2.4340609233113E+02
(PID.TID 0000.0001) %MON exf_hflux_sd                 =   1.4243604730566E+02
(PID.TID 0000.0001) %MON exf_hflux_del2               =   6.1564870228522E-02
(PID.TID 0000.0001) %MON exf_sflux_max                =   2.6023325496155E-07
(PID.TID 0000.0001) %MON exf_sflux_min                =  -1.1464376620600E-06
(PID.TID 0000.0001) %MON exf_sflux_mean               =   1.3434414942964E-08
(PID.TID 0000.0001) %MON exf_sflux_sd                 =   1.0476659122564E-07
(PID.TID 0000.0001) %MON exf_sflux_del2               =   1.9699552075341E-11
(PID.TID 0000.0001) %MON exf_uwind_max                =   1.9557463384974E+01
(PID.TID 0000.0001) %MON exf_uwind_min                =  -1.5072247440332E+01
(PID.TID 0000.0001) %MON exf_uwind_mean               =   2.4688609069858E+00
(PID.TID 0000.0001) %MON exf_uwind_sd                 =   6.6812341251797E+00
(PID.TID 0000.0001) %MON exf_uwind_del2               =   1.5464949681397E-03
(PID.TID 0000.0001) %MON exf_vwind_max                =   1.4512032665565E+01
(PID.TID 0000.0001) %MON exf_vwind_min                =  -1.2804783292584E+01
(PID.TID 0000.0001) %MON exf_vwind_mean               =   8.4990528840095E-01
(PID.TID 0000.0001) %MON exf_vwind_sd                 =   5.2057873568852E+00
(PID.TID 0000.0001) %MON exf_vwind_del2               =   1.1558151470243E-03
(PID.TID 0000.0001) %MON exf_wspeed_max               =   2.0490372279396E+01
(PID.TID 0000.0001) %MON exf_wspeed_min               =   3.7863708164026E-03
(PID.TID 0000.0001) %MON exf_wspeed_mean              =   7.7361213335466E+00
(PID.TID 0000.0001) %MON exf_wspeed_sd                =   4.3254076490558E+00
(PID.TID 0000.0001) %MON exf_wspeed_del2              =   1.9304796305375E-03
(PID.TID 0000.0001) %MON exf_atemp_max                =   2.9817123230001E+02
(PID.TID 0000.0001) %MON exf_atemp_min                =   2.7447495504971E+02
(PID.TID 0000.0001) %MON exf_atemp_mean               =   2.9069278317489E+02
(PID.TID 0000.0001) %MON exf_atemp_sd                 =   3.9438218287336E+00
(PID.TID 0000.0001) %MON exf_atemp_del2               =   3.7850612381780E-03
(PID.TID 0000.0001) %MON exf_aqh_max                  =   1.6801516630708E-02
(PID.TID 0000.0001) %MON exf_aqh_min                  =   2.7331788391884E-03
(PID.TID 0000.0001) %MON exf_aqh_mean                 =   9.4252080431012E-03
(PID.TID 0000.0001) %MON exf_aqh_sd                   =   2.8726446397290E-03
(PID.TID 0000.0001) %MON exf_aqh_del2                 =   2.0706974318284E-06
(PID.TID 0000.0001) %MON exf_lwflux_max               =   1.5079980655886E+02
(PID.TID 0000.0001) %MON exf_lwflux_min               =   1.3832298771525E+01
(PID.TID 0000.0001) %MON exf_lwflux_mean              =   6.8922174668163E+01
(PID.TID 0000.0001) %MON exf_lwflux_sd                =   2.1648890319039E+01
(PID.TID 0000.0001) %MON exf_lwflux_del2              =   1.5364838643920E-02
(PID.TID 0000.0001) %MON exf_evap_max                 =   2.7197484877293E-07
(PID.TID 0000.0001) %MON exf_evap_min                 =  -9.2069784350031E-08
(PID.TID 0000.0001) %MON exf_evap_mean                =   5.9416166155859E-08
(PID.TID 0000.0001) %MON exf_evap_sd                  =   4.2206023174329E-08
(PID.TID 0000.0001) %MON exf_evap_del2                =   1.5882533921931E-11
(PID.TID 0000.0001) %MON exf_precip_max               =   1.3194515830690E-06
(PID.TID 0000.0001) %MON exf_precip_min               =   0.0000000000000E+00
(PID.TID 0000.0001) %MON exf_precip_mean              =   4.4393271807676E-08
(PID.TID 0000.0001) %MON exf_precip_sd                =   1.0414728851172E-07
(PID.TID 0000.0001) %MON exf_precip_del2              =   2.1143250393470E-11
(PID.TID 0000.0001) %MON exf_swflux_max               =   0.0000000000000E+00
(PID.TID 0000.0001) %MON exf_swflux_min               =   0.0000000000000E+00
(PID.TID 0000.0001) %MON exf_swflux_mean              =   0.0000000000000E+00
(PID.TID 0000.0001) %MON exf_swflux_sd                =   0.0000000000000E+00
(PID.TID 0000.0001) %MON exf_swflux_del2              =   0.0000000000000E+00
(PID.TID 0000.0001) %MON exf_swdown_max               =   0.0000000000000E+00
(PID.TID 0000.0001) %MON exf_swdown_min               =   0.0000000000000E+00
(PID.TID 0000.0001) %MON exf_swdown_mean              =   0.0000000000000E+00
(PID.TID 0000.0001) %MON exf_swdown_sd                =   0.0000000000000E+00
(PID.TID 0000.0001) %MON exf_swdown_del2              =   0.0000000000000E+00
(PID.TID 0000.0001) %MON exf_lwdown_max               =   3.9966788667862E+02
(PID.TID 0000.0001) %MON exf_lwdown_min               =   2.2872729573522E+02
(PID.TID 0000.0001) %MON exf_lwdown_mean              =   3.4604191746689E+02
(PID.TID 0000.0001) %MON exf_lwdown_sd                =   2.6718022331912E+01
(PID.TID 0000.0001) %MON exf_lwdown_del2              =   7.4045658440686E-02
(PID.TID 0000.0001) %MON exf_apressure_max            =   1.0278993892836E+05
(PID.TID 0000.0001) %MON exf_apressure_min            =   9.9988779524667E+04
(PID.TID 0000.0001) %MON exf_apressure_mean           =   1.0216141070004E+05
(PID.TID 0000.0001) %MON exf_apressure_sd             =   4.9989954915976E+02
(PID.TID 0000.0001) %MON exf_apressure_del2           =   2.1827352312483E+01
(PID.TID 0000.0001) %MON exf_runoff_max               =   4.4374791284855E-08
(PID.TID 0000.0001) %MON exf_runoff_min               =   0.0000000000000E+00
(PID.TID 0000.0001) %MON exf_runoff_mean              =   1.5884794052193E-09
(PID.TID 0000.0001) %MON exf_runoff_sd                =   5.3901957917178E-09
(PID.TID 0000.0001) %MON exf_runoff_del2              =   1.1512509897985E-12
(PID.TID 0000.0001) // =======================================================
(PID.TID 0000.0001) // End MONITOR EXF statistics
(PID.TID 0000.0001) // =======================================================
 cg2d: Sum(rhs),rhsMax =   2.95181185606382E+02  7.35401018325438E-02
(PID.TID 0000.0001)      cg2d_init_res =   2.15590967258841E+00
(PID.TID 0000.0001)      cg2d_iters(min,last) =      -1     317
(PID.TID 0000.0001)      cg2d_last_res =   6.87093296074927E-12
(PID.TID 0000.0001) // =======================================================
(PID.TID 0000.0001) // Begin MONITOR dynamic field statistics
(PID.TID 0000.0001) // =======================================================
(PID.TID 0000.0001) %MON time_tsnumber                =                     4
(PID.TID 0000.0001) %MON time_secondsf                =   9.6000000000000E+02
(PID.TID 0000.0001) %MON dynstat_eta_max              =   1.0214325183948E+00
(PID.TID 0000.0001) %MON dynstat_eta_min              =  -1.4978317608387E+00
(PID.TID 0000.0001) %MON dynstat_eta_mean             =  -1.0038256420190E-02
(PID.TID 0000.0001) %MON dynstat_eta_sd               =   1.5079257577308E-01
(PID.TID 0000.0001) %MON dynstat_eta_del2             =   2.7423497780768E-06
(PID.TID 0000.0001) %MON dynstat_uvel_max             =   1.2944593064311E+00
(PID.TID 0000.0001) %MON dynstat_uvel_min             =  -9.5948886486182E-01
(PID.TID 0000.0001) %MON dynstat_uvel_mean            =   3.4984023028939E-03
(PID.TID 0000.0001) %MON dynstat_uvel_sd              =   5.2380111528004E-02
(PID.TID 0000.0001) %MON dynstat_uvel_del2            =   4.6529997038638E-07
(PID.TID 0000.0001) %MON dynstat_vvel_max             =   2.0516105064972E+00
(PID.TID 0000.0001) %MON dynstat_vvel_min             =  -9.0270698635885E-01
(PID.TID 0000.0001) %MON dynstat_vvel_mean            =  -2.0189772406748E-03
(PID.TID 0000.0001) %MON dynstat_vvel_sd              =   4.8286403060927E-02
(PID.TID 0000.0001) %MON dynstat_vvel_del2            =   4.2479262349804E-07
(PID.TID 0000.0001) %MON dynstat_wvel_max             =   3.7214860118166E-02
(PID.TID 0000.0001) %MON dynstat_wvel_min             =  -3.1709119312716E-02
(PID.TID 0000.0001) %MON dynstat_wvel_mean            =  -6.7548297683257E-06
(PID.TID 0000.0001) %MON dynstat_wvel_sd              =   5.8883405789866E-04
(PID.TID 0000.0001) %MON dynstat_wvel_del2            =   8.5573205145007E-08
(PID.TID 0000.0001) %MON dynstat_theta_max            =   2.6140697989454E+01
(PID.TID 0000.0001) %MON dynstat_theta_min            =   1.4688639503285E+00
(PID.TID 0000.0001) %MON dynstat_theta_mean           =   5.5098499375567E+00
(PID.TID 0000.0001) %MON dynstat_theta_sd             =   4.7734220458594E+00
(PID.TID 0000.0001) %MON dynstat_theta_del2           =   4.0043854482386E-06
(PID.TID 0000.0001) %MON dynstat_salt_max             =   3.9178855507265E+01
(PID.TID 0000.0001) %MON dynstat_salt_min             =   3.3091989131098E+01
(PID.TID 0000.0001) %MON dynstat_salt_mean            =   3.5173368895423E+01
(PID.TID 0000.0001) %MON dynstat_salt_sd              =   3.7891145283682E-01
(PID.TID 0000.0001) %MON dynstat_salt_del2            =   4.9959579097640E-07
(PID.TID 0000.0001) %MON dynstat_sst_max              =   2.6137834051439E+01
(PID.TID 0000.0001) %MON dynstat_sst_min              =   4.0343723714061E+00
(PID.TID 0000.0001) %MON dynstat_sst_mean             =   1.9643538860002E+01
(PID.TID 0000.0001) %MON dynstat_sst_sd               =   3.6388576558109E+00
(PID.TID 0000.0001) %MON dynstat_sst_del2             =   1.9066682435167E-05
(PID.TID 0000.0001) %MON dynstat_sss_max              =   3.7335574135359E+01
(PID.TID 0000.0001) %MON dynstat_sss_min              =   3.3091989131098E+01
(PID.TID 0000.0001) %MON dynstat_sss_mean             =   3.5868110412147E+01
(PID.TID 0000.0001) %MON dynstat_sss_sd               =   4.8719174994038E-01
(PID.TID 0000.0001) %MON dynstat_sss_del2             =   4.9837037889926E-06
(PID.TID 0000.0001) %MON forcing_qnet_max             =   1.1589476548268E+03
(PID.TID 0000.0001) %MON forcing_qnet_min             =  -2.6948029058641E+02
(PID.TID 0000.0001) %MON forcing_qnet_mean            =   2.4518296778523E+02
(PID.TID 0000.0001) %MON forcing_qnet_sd              =   1.4498916589379E+02
(PID.TID 0000.0001) %MON forcing_qnet_del2            =   1.6838413406620E-03
(PID.TID 0000.0001) %MON forcing_qsw_max              =   0.0000000000000E+00
(PID.TID 0000.0001) %MON forcing_qsw_min              =   0.0000000000000E+00
(PID.TID 0000.0001) %MON forcing_qsw_mean             =   0.0000000000000E+00
(PID.TID 0000.0001) %MON forcing_qsw_sd               =   0.0000000000000E+00
(PID.TID 0000.0001) %MON forcing_qsw_del2             =   0.0000000000000E+00
(PID.TID 0000.0001) %MON forcing_empmr_max            =   2.6023325496155E-04
(PID.TID 0000.0001) %MON forcing_empmr_min            =  -1.1464376620600E-03
(PID.TID 0000.0001) %MON forcing_empmr_mean           =   1.3434414942964E-05
(PID.TID 0000.0001) %MON forcing_empmr_sd             =   1.0476659122564E-04
(PID.TID 0000.0001) %MON forcing_empmr_del2           =   2.6475152563851E-09
(PID.TID 0000.0001) %MON forcing_fu_max               =   8.3420526207667E-01
(PID.TID 0000.0001) %MON forcing_fu_min               =  -4.2249198435396E-01
(PID.TID 0000.0001) %MON forcing_fu_mean              =   6.3027246055305E-02
(PID.TID 0000.0001) %MON forcing_fu_sd                =   1.5589889373455E-01
(PID.TID 0000.0001) %MON forcing_fu_del2              =   3.6457067577355E-07
(PID.TID 0000.0001) %MON forcing_fv_max               =   4.0129452835611E-01
(PID.TID 0000.0001) %MON forcing_fv_min               =  -5.7045714722698E-01
(PID.TID 0000.0001) %MON forcing_fv_mean              =   1.0633047141256E-02
(PID.TID 0000.0001) %MON forcing_fv_sd                =   1.0235087518363E-01
(PID.TID 0000.0001) %MON forcing_fv_del2              =   2.6907993943031E-07
(PID.TID 0000.0001) %MON trAdv_CFL_u_max              =   7.8535833654663E-02
(PID.TID 0000.0001) %MON trAdv_CFL_v_max              =   1.2962774600461E-01
(PID.TID 0000.0001) %MON trAdv_CFL_w_max              =   4.8279765325616E-01
(PID.TID 0000.0001) %MON advcfl_uvel_max              =   7.8535832585327E-02
(PID.TID 0000.0001) %MON advcfl_vvel_max              =   1.2966546267318E-01
(PID.TID 0000.0001) %MON advcfl_wvel_max              =   4.8423028724208E-01
(PID.TID 0000.0001) %MON advcfl_W_hf_max              =   4.8567144881125E-01
(PID.TID 0000.0001) %MON pe_b_mean                    =  -2.1492584556015E-04
(PID.TID 0000.0001) %MON ke_max                       =   1.8773607406950E+00
(PID.TID 0000.0001) %MON ke_mean                      =   2.5269365216903E-03
(PID.TID 0000.0001) %MON ke_vol                       =   4.5818637279723E+16
(PID.TID 0000.0001) %MON vort_r_min                   =  -4.8883283159917E-04
(PID.TID 0000.0001) %MON vort_r_max                   =   5.7652349945292E-04
(PID.TID 0000.0001) %MON vort_a_mean                  =   8.2147628585899E-05
(PID.TID 0000.0001) %MON vort_a_sd                    =   1.0123610972770E-05
(PID.TID 0000.0001) %MON vort_p_mean                  =   8.4848850075800E-05
(PID.TID 0000.0001) %MON vort_p_sd                    =   3.4975114061892E-05
(PID.TID 0000.0001) %MON surfExpan_theta_mean         =  -5.2507725371891E-05
(PID.TID 0000.0001) %MON surfExpan_salt_mean          =  -4.5638544913976E-04
(PID.TID 0000.0001) // =======================================================
(PID.TID 0000.0001) // End MONITOR dynamic field statistics
(PID.TID 0000.0001) // =======================================================
(PID.TID 0000.0001) // =======================================================
(PID.TID 0000.0001) // Begin OBCS MONITOR field statistics
(PID.TID 0000.0001) // =======================================================
(PID.TID 0000.0001) %MON obc_N_vVel_max               =   6.9553192130751E-01
(PID.TID 0000.0001) %MON obc_N_vVel_min               =  -3.2224932600846E-01
(PID.TID 0000.0001) %MON obc_N_vVel_mean              =   1.3451067297277E-02
(PID.TID 0000.0001) %MON obc_N_vVel_sd                =   6.4688179853585E-02
(PID.TID 0000.0001) %MON obc_N_vVel_Int               =   1.9255316447359E+08
(PID.TID 0000.0001) %MON obc_S_vVel_max               =   2.0516105064972E+00
(PID.TID 0000.0001) %MON obc_S_vVel_min               =  -2.6233395479551E-01
(PID.TID 0000.0001) %MON obc_S_vVel_mean              =   1.3372914318189E-03
(PID.TID 0000.0001) %MON obc_S_vVel_sd                =   3.5879578143183E-02
(PID.TID 0000.0001) %MON obc_S_vVel_Int               =   4.0711028892322E+07
(PID.TID 0000.0001) %MON obc_N_theta_max              =   1.6390508636415E+01
(PID.TID 0000.0001) %MON obc_N_theta_min              =   1.8895909232471E+00
(PID.TID 0000.0001) %MON obc_N_theta_mean             =   5.1589509652886E+00
(PID.TID 0000.0001) %MON obc_N_theta_sd               =   3.4826967698724E+00
(PID.TID 0000.0001) %MON obc_S_theta_max              =   2.5544530313689E+01
(PID.TID 0000.0001) %MON obc_S_theta_min              =   1.4632972260357E+00
(PID.TID 0000.0001) %MON obc_S_theta_mean             =   5.4595545601130E+00
(PID.TID 0000.0001) %MON obc_S_theta_sd               =   5.3559215504875E+00
(PID.TID 0000.0001) %MON obc_N_salt_max               =   3.5910866014505E+01
(PID.TID 0000.0001) %MON obc_N_salt_min               =   3.3295036080578E+01
(PID.TID 0000.0001) %MON obc_N_salt_mean              =   3.5114563132403E+01
(PID.TID 0000.0001) %MON obc_N_salt_sd                =   3.0984885183339E-01
(PID.TID 0000.0001) %MON obc_S_salt_max               =   3.7318319093085E+01
(PID.TID 0000.0001) %MON obc_S_salt_min               =   3.4844694522698E+01
(PID.TID 0000.0001) %MON obc_S_salt_mean              =   3.5168372651167E+01
(PID.TID 0000.0001) %MON obc_S_salt_sd                =   4.5716970351854E-01
(PID.TID 0000.0001) // =======================================================
(PID.TID 0000.0001) // End OBCS MONITOR field statistics
(PID.TID 0000.0001) // =======================================================
(PID.TID 0000.0001) // =======================================================
(PID.TID 0000.0001) // Begin MONITOR EXF statistics
(PID.TID 0000.0001) // =======================================================
(PID.TID 0000.0001) %MON exf_tsnumber                 =                     4
(PID.TID 0000.0001) %MON exf_time_sec                 =   9.6000000000000E+02
(PID.TID 0000.0001) %MON exf_ustress_max              =   8.3490818040675E-01
(PID.TID 0000.0001) %MON exf_ustress_min              =  -4.1944458324272E-01
(PID.TID 0000.0001) %MON exf_ustress_mean             =   6.2959166470866E-02
(PID.TID 0000.0001) %MON exf_ustress_sd               =   1.5546704000644E-01
(PID.TID 0000.0001) %MON exf_ustress_del2             =   3.9395174866610E-07
(PID.TID 0000.0001) %MON exf_vstress_max              =   3.9651771751414E-01
(PID.TID 0000.0001) %MON exf_vstress_min              =  -5.6574900982713E-01
(PID.TID 0000.0001) %MON exf_vstress_mean             =   1.0650498701615E-02
(PID.TID 0000.0001) %MON exf_vstress_sd               =   1.0188762380527E-01
(PID.TID 0000.0001) %MON exf_vstress_del2             =   2.7705252680697E-07
(PID.TID 0000.0001) %MON exf_hflux_max                =   1.1440495170465E+03
(PID.TID 0000.0001) %MON exf_hflux_min                =  -2.6848004422125E+02
(PID.TID 0000.0001) %MON exf_hflux_mean               =   2.4249794730117E+02
(PID.TID 0000.0001) %MON exf_hflux_sd                 =   1.4179873792220E+02
(PID.TID 0000.0001) %MON exf_hflux_del2               =   6.1319941977208E-02
(PID.TID 0000.0001) %MON exf_sflux_max                =   2.5934647676306E-07
(PID.TID 0000.0001) %MON exf_sflux_min                =  -1.2714458043586E-06
(PID.TID 0000.0001) %MON exf_sflux_mean               =   1.4308679381202E-08
(PID.TID 0000.0001) %MON exf_sflux_sd                 =   1.0961702004233E-07
(PID.TID 0000.0001) %MON exf_sflux_del2               =   2.0126623717122E-11
(PID.TID 0000.0001) %MON exf_uwind_max                =   1.9559090615930E+01
(PID.TID 0000.0001) %MON exf_uwind_min                =  -1.5034547571773E+01
(PID.TID 0000.0001) %MON exf_uwind_mean               =   2.4703568119462E+00
(PID.TID 0000.0001) %MON exf_uwind_sd                 =   6.6765099649157E+00
(PID.TID 0000.0001) %MON exf_uwind_del2               =   1.5451463066521E-03
(PID.TID 0000.0001) %MON exf_vwind_max                =   1.4443352798843E+01
(PID.TID 0000.0001) %MON exf_vwind_min                =  -1.2792238272697E+01
(PID.TID 0000.0001) %MON exf_vwind_mean               =   8.5164801547160E-01
(PID.TID 0000.0001) %MON exf_vwind_sd                 =   5.1967810996190E+00
(PID.TID 0000.0001) %MON exf_vwind_del2               =   1.1542320566779E-03
(PID.TID 0000.0001) %MON exf_wspeed_max               =   2.0442977997983E+01
(PID.TID 0000.0001) %MON exf_wspeed_min               =   2.0722658171733E-02
(PID.TID 0000.0001) %MON exf_wspeed_mean              =   7.7286248078906E+00
(PID.TID 0000.0001) %MON exf_wspeed_sd                =   4.3218797771824E+00
(PID.TID 0000.0001) %MON exf_wspeed_del2              =   1.9284617803092E-03
(PID.TID 0000.0001) %MON exf_atemp_max                =   2.9816903501159E+02
(PID.TID 0000.0001) %MON exf_atemp_min                =   2.7444935384107E+02
(PID.TID 0000.0001) %MON exf_atemp_mean               =   2.9068966196870E+02
(PID.TID 0000.0001) %MON exf_atemp_sd                 =   3.9435706603966E+00
(PID.TID 0000.0001) %MON exf_atemp_del2               =   3.7844158724569E-03
(PID.TID 0000.0001) %MON exf_aqh_max                  =   1.6794530329835E-02
(PID.TID 0000.0001) %MON exf_aqh_min                  =   2.7308841414245E-03
(PID.TID 0000.0001) %MON exf_aqh_mean                 =   9.4240198902871E-03
(PID.TID 0000.0001) %MON exf_aqh_sd                   =   2.8724836765692E-03
(PID.TID 0000.0001) %MON exf_aqh_del2                 =   2.0703930204666E-06
(PID.TID 0000.0001) %MON exf_lwflux_max               =   1.5068737871059E+02
(PID.TID 0000.0001) %MON exf_lwflux_min               =   1.1240445408024E+01
(PID.TID 0000.0001) %MON exf_lwflux_mean              =   6.8144889099354E+01
(PID.TID 0000.0001) %MON exf_lwflux_sd                =   2.2436215331517E+01
(PID.TID 0000.0001) %MON exf_lwflux_del2              =   1.5267936564330E-02
(PID.TID 0000.0001) %MON exf_evap_max                 =   2.7340266692219E-07
(PID.TID 0000.0001) %MON exf_evap_min                 =  -9.2617589766963E-08
(PID.TID 0000.0001) %MON exf_evap_mean                =   5.9366564765248E-08
(PID.TID 0000.0001) %MON exf_evap_sd                  =   4.2144251135178E-08
(PID.TID 0000.0001) %MON exf_evap_del2                =   1.5864727191882E-11
(PID.TID 0000.0001) %MON exf_precip_max               =   1.4451136385994E-06
(PID.TID 0000.0001) %MON exf_precip_min               =   0.0000000000000E+00
(PID.TID 0000.0001) %MON exf_precip_mean              =   4.3469405978827E-08
(PID.TID 0000.0001) %MON exf_precip_sd                =   1.1052624745011E-07
(PID.TID 0000.0001) %MON exf_precip_del2              =   2.1738877497865E-11
(PID.TID 0000.0001) %MON exf_swflux_max               =   0.0000000000000E+00
(PID.TID 0000.0001) %MON exf_swflux_min               =   0.0000000000000E+00
(PID.TID 0000.0001) %MON exf_swflux_mean              =   0.0000000000000E+00
(PID.TID 0000.0001) %MON exf_swflux_sd                =   0.0000000000000E+00
(PID.TID 0000.0001) %MON exf_swflux_del2              =   0.0000000000000E+00
(PID.TID 0000.0001) %MON exf_swdown_max               =   0.0000000000000E+00
(PID.TID 0000.0001) %MON exf_swdown_min               =   0.0000000000000E+00
(PID.TID 0000.0001) %MON exf_swdown_mean              =   0.0000000000000E+00
(PID.TID 0000.0001) %MON exf_swdown_sd                =   0.0000000000000E+00
(PID.TID 0000.0001) %MON exf_swdown_del2              =   0.0000000000000E+00
(PID.TID 0000.0001) %MON exf_lwdown_max               =   4.0121792842509E+02
(PID.TID 0000.0001) %MON exf_lwdown_min               =   2.2846849151524E+02
(PID.TID 0000.0001) %MON exf_lwdown_mean              =   3.4683597144715E+02
(PID.TID 0000.0001) %MON exf_lwdown_sd                =   2.7582523170917E+01
(PID.TID 0000.0001) %MON exf_lwdown_del2              =   7.4222085579748E-02
(PID.TID 0000.0001) %MON exf_apressure_max            =   1.0279144996075E+05
(PID.TID 0000.0001) %MON exf_apressure_min            =   9.9993666812272E+04
(PID.TID 0000.0001) %MON exf_apressure_mean           =   1.0216218800660E+05
(PID.TID 0000.0001) %MON exf_apressure_sd             =   4.9961757351803E+02
(PID.TID 0000.0001) %MON exf_apressure_del2           =   2.1827521107059E+01
(PID.TID 0000.0001) %MON exf_runoff_max               =   4.4374791284855E-08
(PID.TID 0000.0001) %MON exf_runoff_min               =   0.0000000000000E+00
(PID.TID 0000.0001) %MON exf_runoff_mean              =   1.5884794052193E-09
(PID.TID 0000.0001) %MON exf_runoff_sd                =   5.3901957917178E-09
(PID.TID 0000.0001) %MON exf_runoff_del2              =   1.1512509897985E-12
(PID.TID 0000.0001) // =======================================================
(PID.TID 0000.0001) // End MONITOR EXF statistics
(PID.TID 0000.0001) // =======================================================
 cg2d: Sum(rhs),rhsMax =   4.03838863826267E+02  7.13361340975385E-02
(PID.TID 0000.0001)      cg2d_init_res =   1.84603692046867E+00
(PID.TID 0000.0001)      cg2d_iters(min,last) =      -1     316
(PID.TID 0000.0001)      cg2d_last_res =   6.72660765951214E-12
(PID.TID 0000.0001) // =======================================================
(PID.TID 0000.0001) // Begin MONITOR dynamic field statistics
(PID.TID 0000.0001) // =======================================================
(PID.TID 0000.0001) %MON time_tsnumber                =                     5
(PID.TID 0000.0001) %MON time_secondsf                =   1.2000000000000E+03
(PID.TID 0000.0001) %MON dynstat_eta_max              =   1.0446253487467E+00
(PID.TID 0000.0001) %MON dynstat_eta_min              =  -1.4278544427748E+00
(PID.TID 0000.0001) %MON dynstat_eta_mean             =  -1.3733389068137E-02
(PID.TID 0000.0001) %MON dynstat_eta_sd               =   1.7078847905889E-01
(PID.TID 0000.0001) %MON dynstat_eta_del2             =   2.5003942301635E-06
(PID.TID 0000.0001) %MON dynstat_uvel_max             =   1.2976214589949E+00
(PID.TID 0000.0001) %MON dynstat_uvel_min             =  -9.0739383570749E-01
(PID.TID 0000.0001) %MON dynstat_uvel_mean            =   3.3187125694534E-03
(PID.TID 0000.0001) %MON dynstat_uvel_sd              =   5.2396196890014E-02
(PID.TID 0000.0001) %MON dynstat_uvel_del2            =   4.6893729290291E-07
(PID.TID 0000.0001) %MON dynstat_vvel_max             =   2.1154440145923E+00
(PID.TID 0000.0001) %MON dynstat_vvel_min             =  -9.0650528323128E-01
(PID.TID 0000.0001) %MON dynstat_vvel_mean            =  -2.3962589647716E-03
(PID.TID 0000.0001) %MON dynstat_vvel_sd              =   4.8404115001478E-02
(PID.TID 0000.0001) %MON dynstat_vvel_del2            =   4.2808684075766E-07
(PID.TID 0000.0001) %MON dynstat_wvel_max             =   3.6941469185081E-02
(PID.TID 0000.0001) %MON dynstat_wvel_min             =  -3.1008420471817E-02
(PID.TID 0000.0001) %MON dynstat_wvel_mean            =  -7.9621677630849E-06
(PID.TID 0000.0001) %MON dynstat_wvel_sd              =   5.8738720641383E-04
(PID.TID 0000.0001) %MON dynstat_wvel_del2            =   8.0880550852540E-08
(PID.TID 0000.0001) %MON dynstat_theta_max            =   2.6140334573520E+01
(PID.TID 0000.0001) %MON dynstat_theta_min            =   1.4688640601210E+00
(PID.TID 0000.0001) %MON dynstat_theta_mean           =   5.5098461347459E+00
(PID.TID 0000.0001) %MON dynstat_theta_sd             =   4.7733988519053E+00
(PID.TID 0000.0001) %MON dynstat_theta_del2           =   4.0082589740346E-06
(PID.TID 0000.0001) %MON dynstat_salt_max             =   3.9176411682435E+01
(PID.TID 0000.0001) %MON dynstat_salt_min             =   3.3092703947248E+01
(PID.TID 0000.0001) %MON dynstat_salt_mean            =   3.5173367939268E+01
(PID.TID 0000.0001) %MON dynstat_salt_sd              =   3.7891087484662E-01
(PID.TID 0000.0001) %MON dynstat_salt_del2            =   5.0282212595656E-07
(PID.TID 0000.0001) %MON dynstat_sst_max              =   2.6137107575638E+01
(PID.TID 0000.0001) %MON dynstat_sst_min              =   4.0203616830488E+00
(PID.TID 0000.0001) %MON dynstat_sst_mean             =   1.9642412312637E+01
(PID.TID 0000.0001) %MON dynstat_sst_sd               =   3.6388971921789E+00
(PID.TID 0000.0001) %MON dynstat_sst_del2             =   1.9071742105674E-05
(PID.TID 0000.0001) %MON dynstat_sss_max              =   3.7335657422416E+01
(PID.TID 0000.0001) %MON dynstat_sss_min              =   3.3092703947248E+01
(PID.TID 0000.0001) %MON dynstat_sss_mean             =   3.5868149510638E+01
(PID.TID 0000.0001) %MON dynstat_sss_sd               =   4.8719180413482E-01
(PID.TID 0000.0001) %MON dynstat_sss_del2             =   4.9727520473720E-06
(PID.TID 0000.0001) %MON forcing_qnet_max             =   1.1612392023942E+03
(PID.TID 0000.0001) %MON forcing_qnet_min             =  -2.7353958764101E+02
(PID.TID 0000.0001) %MON forcing_qnet_mean            =   2.4435381655717E+02
(PID.TID 0000.0001) %MON forcing_qnet_sd              =   1.4414972168300E+02
(PID.TID 0000.0001) %MON forcing_qnet_del2            =   1.6743431529160E-03
(PID.TID 0000.0001) %MON forcing_qsw_max              =   0.0000000000000E+00
(PID.TID 0000.0001) %MON forcing_qsw_min              =   0.0000000000000E+00
(PID.TID 0000.0001) %MON forcing_qsw_mean             =   0.0000000000000E+00
(PID.TID 0000.0001) %MON forcing_qsw_sd               =   0.0000000000000E+00
(PID.TID 0000.0001) %MON forcing_qsw_del2             =   0.0000000000000E+00
(PID.TID 0000.0001) %MON forcing_empmr_max            =   2.5934647676306E-04
(PID.TID 0000.0001) %MON forcing_empmr_min            =  -1.2714458043586E-03
(PID.TID 0000.0001) %MON forcing_empmr_mean           =   1.4308679381202E-05
(PID.TID 0000.0001) %MON forcing_empmr_sd             =   1.0961702004233E-04
(PID.TID 0000.0001) %MON forcing_empmr_del2           =   2.7833197367900E-09
(PID.TID 0000.0001) %MON forcing_fu_max               =   8.3288210857333E-01
(PID.TID 0000.0001) %MON forcing_fu_min               =  -4.1937483466905E-01
(PID.TID 0000.0001) %MON forcing_fu_mean              =   6.3016681322777E-02
(PID.TID 0000.0001) %MON forcing_fu_sd                =   1.5552624830704E-01
(PID.TID 0000.0001) %MON forcing_fu_del2              =   3.5215378850311E-07
(PID.TID 0000.0001) %MON forcing_fv_max               =   3.9612183016346E-01
(PID.TID 0000.0001) %MON forcing_fv_min               =  -5.6875609613872E-01
(PID.TID 0000.0001) %MON forcing_fv_mean              =   1.0630601642124E-02
(PID.TID 0000.0001) %MON forcing_fv_sd                =   1.0201796145070E-01
(PID.TID 0000.0001) %MON forcing_fv_del2              =   2.5666143591430E-07
(PID.TID 0000.0001) %MON trAdv_CFL_u_max              =   7.8727683863088E-02
(PID.TID 0000.0001) %MON trAdv_CFL_v_max              =   1.3366096466269E-01
(PID.TID 0000.0001) %MON trAdv_CFL_w_max              =   4.5623944615844E-01
(PID.TID 0000.0001) %MON advcfl_uvel_max              =   7.8727682791139E-02
(PID.TID 0000.0001) %MON advcfl_vvel_max              =   1.3369985484216E-01
(PID.TID 0000.0001) %MON advcfl_wvel_max              =   4.5759327240817E-01
(PID.TID 0000.0001) %MON advcfl_W_hf_max              =   4.5895515714748E-01
(PID.TID 0000.0001) %MON pe_b_mean                    =  -2.9663582616132E-04
(PID.TID 0000.0001) %MON ke_max                       =   2.0258688264145E+00
(PID.TID 0000.0001) %MON ke_mean                      =   2.5336516970787E-03
(PID.TID 0000.0001) %MON ke_vol                       =   4.5818637279723E+16
(PID.TID 0000.0001) %MON vort_r_min                   =  -5.0037606389841E-04
(PID.TID 0000.0001) %MON vort_r_max                   =   5.5101212176532E-04
(PID.TID 0000.0001) %MON vort_a_mean                  =   8.2147627825484E-05
(PID.TID 0000.0001) %MON vort_a_sd                    =   1.0125623787754E-05
(PID.TID 0000.0001) %MON vort_p_mean                  =   8.4848849290380E-05
(PID.TID 0000.0001) %MON vort_p_sd                    =   3.4972815103229E-05
(PID.TID 0000.0001) %MON surfExpan_theta_mean         =  -9.4212889108099E-05
(PID.TID 0000.0001) %MON surfExpan_salt_mean          =  -5.2873982791906E-04
(PID.TID 0000.0001) // =======================================================
(PID.TID 0000.0001) // End MONITOR dynamic field statistics
(PID.TID 0000.0001) // =======================================================
(PID.TID 0000.0001) // =======================================================
(PID.TID 0000.0001) // Begin OBCS MONITOR field statistics
(PID.TID 0000.0001) // =======================================================
(PID.TID 0000.0001) %MON obc_N_vVel_max               =   6.9543718136846E-01
(PID.TID 0000.0001) %MON obc_N_vVel_min               =  -3.2241212391701E-01
(PID.TID 0000.0001) %MON obc_N_vVel_mean              =   1.3501340616436E-02
(PID.TID 0000.0001) %MON obc_N_vVel_sd                =   6.4680224712309E-02
(PID.TID 0000.0001) %MON obc_N_vVel_Int               =   1.9327283128359E+08
(PID.TID 0000.0001) %MON obc_S_vVel_max               =   2.1154440145923E+00
(PID.TID 0000.0001) %MON obc_S_vVel_min               =  -2.6245505327119E-01
(PID.TID 0000.0001) %MON obc_S_vVel_mean              =   6.3302524519790E-04
(PID.TID 0000.0001) %MON obc_S_vVel_sd                =   3.5920573633926E-02
(PID.TID 0000.0001) %MON obc_S_vVel_Int               =   1.9271124029987E+07
(PID.TID 0000.0001) %MON obc_N_theta_max              =   1.6390420534228E+01
(PID.TID 0000.0001) %MON obc_N_theta_min              =   1.8895909723125E+00
(PID.TID 0000.0001) %MON obc_N_theta_mean             =   5.1589435811386E+00
(PID.TID 0000.0001) %MON obc_N_theta_sd               =   3.4826874778161E+00
(PID.TID 0000.0001) %MON obc_S_theta_max              =   2.5544427564909E+01
(PID.TID 0000.0001) %MON obc_S_theta_min              =   1.4632976223230E+00
(PID.TID 0000.0001) %MON obc_S_theta_mean             =   5.4595537550885E+00
(PID.TID 0000.0001) %MON obc_S_theta_sd               =   5.3559176792685E+00
(PID.TID 0000.0001) %MON obc_N_salt_max               =   3.5910865606142E+01
(PID.TID 0000.0001) %MON obc_N_salt_min               =   3.3295041583212E+01
(PID.TID 0000.0001) %MON obc_N_salt_mean              =   3.5114562836416E+01
(PID.TID 0000.0001) %MON obc_N_salt_sd                =   3.0984873249132E-01
(PID.TID 0000.0001) %MON obc_S_salt_max               =   3.7318312208701E+01
(PID.TID 0000.0001) %MON obc_S_salt_min               =   3.4844694574919E+01
(PID.TID 0000.0001) %MON obc_S_salt_mean              =   3.5168372579251E+01
(PID.TID 0000.0001) %MON obc_S_salt_sd                =   4.5716935243198E-01
(PID.TID 0000.0001) // =======================================================
(PID.TID 0000.0001) // End OBCS MONITOR field statistics
(PID.TID 0000.0001) // =======================================================
(PID.TID 0000.0001) // =======================================================
(PID.TID 0000.0001) // Begin MONITOR EXF statistics
(PID.TID 0000.0001) // =======================================================
(PID.TID 0000.0001) %MON exf_tsnumber                 =                     5
(PID.TID 0000.0001) %MON exf_time_sec                 =   1.2000000000000E+03
(PID.TID 0000.0001) %MON exf_ustress_max              =   8.3398173537450E-01
(PID.TID 0000.0001) %MON exf_ustress_min              =  -4.1637814025653E-01
(PID.TID 0000.0001) %MON exf_ustress_mean             =   6.2978634670347E-02
(PID.TID 0000.0001) %MON exf_ustress_sd               =   1.5519043447907E-01
(PID.TID 0000.0001) %MON exf_ustress_del2             =   3.8560982239804E-07
(PID.TID 0000.0001) %MON exf_vstress_max              =   3.9332737442479E-01
(PID.TID 0000.0001) %MON exf_vstress_min              =  -5.6425848844903E-01
(PID.TID 0000.0001) %MON exf_vstress_mean             =   1.0662291988761E-02
(PID.TID 0000.0001) %MON exf_vstress_sd               =   1.0164680060406E-01
(PID.TID 0000.0001) %MON exf_vstress_del2             =   2.6909024058186E-07
(PID.TID 0000.0001) %MON exf_hflux_max                =   1.1474271363975E+03
(PID.TID 0000.0001) %MON exf_hflux_min                =  -2.7313598984612E+02
(PID.TID 0000.0001) %MON exf_hflux_mean               =   2.4162158042596E+02
(PID.TID 0000.0001) %MON exf_hflux_sd                 =   1.4124442815882E+02
(PID.TID 0000.0001) %MON exf_hflux_del2               =   6.1092170237391E-02
(PID.TID 0000.0001) %MON exf_sflux_max                =   2.5850179497852E-07
(PID.TID 0000.0001) %MON exf_sflux_min                =  -1.3964488495866E-06
(PID.TID 0000.0001) %MON exf_sflux_mean               =   1.5193072827392E-08
(PID.TID 0000.0001) %MON exf_sflux_sd                 =   1.1564756977655E-07
(PID.TID 0000.0001) %MON exf_sflux_del2               =   2.0835965034786E-11
(PID.TID 0000.0001) %MON exf_uwind_max                =   1.9561407859294E+01
(PID.TID 0000.0001) %MON exf_uwind_min                =  -1.4997936202856E+01
(PID.TID 0000.0001) %MON exf_uwind_mean               =   2.4719777766465E+00
(PID.TID 0000.0001) %MON exf_uwind_sd                 =   6.6727698444369E+00
(PID.TID 0000.0001) %MON exf_uwind_del2               =   1.5440291439213E-03
(PID.TID 0000.0001) %MON exf_vwind_max                =   1.4395237310701E+01
(PID.TID 0000.0001) %MON exf_vwind_min                =  -1.2782352223490E+01
(PID.TID 0000.0001) %MON exf_vwind_mean               =   8.5340039874516E-01
(PID.TID 0000.0001) %MON exf_vwind_sd                 =   5.1894399849368E+00
(PID.TID 0000.0001) %MON exf_vwind_del2               =   1.1530044504655E-03
(PID.TID 0000.0001) %MON exf_wspeed_max               =   2.0401365897935E+01
(PID.TID 0000.0001) %MON exf_wspeed_min               =   7.9698971308739E-03
(PID.TID 0000.0001) %MON exf_wspeed_mean              =   7.7224723102644E+00
(PID.TID 0000.0001) %MON exf_wspeed_sd                =   4.3195523541332E+00
(PID.TID 0000.0001) %MON exf_wspeed_del2              =   1.9268400558965E-03
(PID.TID 0000.0001) %MON exf_atemp_max                =   2.9816683772317E+02
(PID.TID 0000.0001) %MON exf_atemp_min                =   2.7442375263243E+02
(PID.TID 0000.0001) %MON exf_atemp_mean               =   2.9068654076250E+02
(PID.TID 0000.0001) %MON exf_atemp_sd                 =   3.9434619743397E+00
(PID.TID 0000.0001) %MON exf_atemp_del2               =   3.7837766978299E-03
(PID.TID 0000.0001) %MON exf_aqh_max                  =   1.6787544028961E-02
(PID.TID 0000.0001) %MON exf_aqh_min                  =   2.7285894436605E-03
(PID.TID 0000.0001) %MON exf_aqh_mean                 =   9.4228317374731E-03
(PID.TID 0000.0001) %MON exf_aqh_sd                   =   2.8724955205138E-03
(PID.TID 0000.0001) %MON exf_aqh_del2                 =   2.0700995347047E-06
(PID.TID 0000.0001) %MON exf_lwflux_max               =   1.5058637905982E+02
(PID.TID 0000.0001) %MON exf_lwflux_min               =   7.2576061477439E+00
(PID.TID 0000.0001) %MON exf_lwflux_mean              =   6.7368440885306E+01
(PID.TID 0000.0001) %MON exf_lwflux_sd                =   2.3459856139390E+01
(PID.TID 0000.0001) %MON exf_lwflux_del2              =   1.5190668277028E-02
(PID.TID 0000.0001) %MON exf_evap_max                 =   2.7489579487573E-07
(PID.TID 0000.0001) %MON exf_evap_min                 =  -9.3330797239759E-08
(PID.TID 0000.0001) %MON exf_evap_mean                =   5.9327092382590E-08
(PID.TID 0000.0001) %MON exf_evap_sd                  =   4.2097105590039E-08
(PID.TID 0000.0001) %MON exf_evap_del2                =   1.5850643190350E-11
(PID.TID 0000.0001) %MON exf_precip_max               =   1.5707756941297E-06
(PID.TID 0000.0001) %MON exf_precip_min               =   0.0000000000000E+00
(PID.TID 0000.0001) %MON exf_precip_mean              =   4.2545540149979E-08
(PID.TID 0000.0001) %MON exf_precip_sd                =   1.1790919939009E-07
(PID.TID 0000.0001) %MON exf_precip_del2              =   2.2583944558374E-11
(PID.TID 0000.0001) %MON exf_swflux_max               =   0.0000000000000E+00
(PID.TID 0000.0001) %MON exf_swflux_min               =   0.0000000000000E+00
(PID.TID 0000.0001) %MON exf_swflux_mean              =   0.0000000000000E+00
(PID.TID 0000.0001) %MON exf_swflux_sd                =   0.0000000000000E+00
(PID.TID 0000.0001) %MON exf_swflux_del2              =   0.0000000000000E+00
(PID.TID 0000.0001) %MON exf_swdown_max               =   0.0000000000000E+00
(PID.TID 0000.0001) %MON exf_swdown_min               =   0.0000000000000E+00
(PID.TID 0000.0001) %MON exf_swdown_mean              =   0.0000000000000E+00
(PID.TID 0000.0001) %MON exf_swdown_sd                =   0.0000000000000E+00
(PID.TID 0000.0001) %MON exf_swdown_del2              =   0.0000000000000E+00
(PID.TID 0000.0001) %MON exf_lwdown_max               =   4.0522098466867E+02
(PID.TID 0000.0001) %MON exf_lwdown_min               =   2.2767370597179E+02
(PID.TID 0000.0001) %MON exf_lwdown_mean              =   3.4763002542741E+02
(PID.TID 0000.0001) %MON exf_lwdown_sd                =   2.8649240414861E+01
(PID.TID 0000.0001) %MON exf_lwdown_del2              =   7.4402442500334E-02
(PID.TID 0000.0001) %MON exf_apressure_max            =   1.0279296099314E+05
(PID.TID 0000.0001) %MON exf_apressure_min            =   9.9998241534199E+04
(PID.TID 0000.0001) %MON exf_apressure_mean           =   1.0216296531315E+05
(PID.TID 0000.0001) %MON exf_apressure_sd             =   4.9937521608734E+02
(PID.TID 0000.0001) %MON exf_apressure_del2           =   2.1827689944452E+01
(PID.TID 0000.0001) %MON exf_runoff_max               =   4.4374791284855E-08
(PID.TID 0000.0001) %MON exf_runoff_min               =   0.0000000000000E+00
(PID.TID 0000.0001) %MON exf_runoff_mean              =   1.5884794052193E-09
(PID.TID 0000.0001) %MON exf_runoff_sd                =   5.3901957917178E-09
(PID.TID 0000.0001) %MON exf_runoff_del2              =   1.1512509897985E-12
(PID.TID 0000.0001) // =======================================================
(PID.TID 0000.0001) // End MONITOR EXF statistics
(PID.TID 0000.0001) // =======================================================
 cg2d: Sum(rhs),rhsMax =   5.26202007567546E+02  6.70469061061459E-02
(PID.TID 0000.0001)      cg2d_init_res =   1.61354274212641E+00
(PID.TID 0000.0001)      cg2d_iters(min,last) =      -1     316
(PID.TID 0000.0001)      cg2d_last_res =   6.41537190751665E-12
(PID.TID 0000.0001) // =======================================================
(PID.TID 0000.0001) // Begin MONITOR dynamic field statistics
(PID.TID 0000.0001) // =======================================================
(PID.TID 0000.0001) %MON time_tsnumber                =                     6
(PID.TID 0000.0001) %MON time_secondsf                =   1.4400000000000E+03
(PID.TID 0000.0001) %MON dynstat_eta_max              =   1.0420619154377E+00
(PID.TID 0000.0001) %MON dynstat_eta_min              =  -1.3363228771433E+00
(PID.TID 0000.0001) %MON dynstat_eta_mean             =  -1.7894604867620E-02
(PID.TID 0000.0001) %MON dynstat_eta_sd               =   1.8780303157008E-01
(PID.TID 0000.0001) %MON dynstat_eta_del2             =   2.3862028374543E-06
(PID.TID 0000.0001) %MON dynstat_uvel_max             =   1.2994272874771E+00
(PID.TID 0000.0001) %MON dynstat_uvel_min             =  -8.0033784408708E-01
(PID.TID 0000.0001) %MON dynstat_uvel_mean            =   3.1158072776493E-03
(PID.TID 0000.0001) %MON dynstat_uvel_sd              =   5.2388686854412E-02
(PID.TID 0000.0001) %MON dynstat_uvel_del2            =   4.7451665199662E-07
(PID.TID 0000.0001) %MON dynstat_vvel_max             =   2.1788666012208E+00
(PID.TID 0000.0001) %MON dynstat_vvel_min             =  -9.0982713088912E-01
(PID.TID 0000.0001) %MON dynstat_vvel_mean            =  -2.7454647370295E-03
(PID.TID 0000.0001) %MON dynstat_vvel_sd              =   4.8545859428418E-02
(PID.TID 0000.0001) %MON dynstat_vvel_del2            =   4.3376285607761E-07
(PID.TID 0000.0001) %MON dynstat_wvel_max             =   3.6521500252761E-02
(PID.TID 0000.0001) %MON dynstat_wvel_min             =  -3.0053053461487E-02
(PID.TID 0000.0001) %MON dynstat_wvel_mean            =  -9.1596774144783E-06
(PID.TID 0000.0001) %MON dynstat_wvel_sd              =   5.8738427665418E-04
(PID.TID 0000.0001) %MON dynstat_wvel_del2            =   7.6890640674131E-08
(PID.TID 0000.0001) %MON dynstat_theta_max            =   2.6140015534269E+01
(PID.TID 0000.0001) %MON dynstat_theta_min            =   1.4688641783950E+00
(PID.TID 0000.0001) %MON dynstat_theta_mean           =   5.5098442055422E+00
(PID.TID 0000.0001) %MON dynstat_theta_sd             =   4.7733783949092E+00
(PID.TID 0000.0001) %MON dynstat_theta_del2           =   4.0124878491140E-06
(PID.TID 0000.0001) %MON dynstat_salt_max             =   3.9173654110135E+01
(PID.TID 0000.0001) %MON dynstat_salt_min             =   3.3093476384441E+01
(PID.TID 0000.0001) %MON dynstat_salt_mean            =   3.5173367170699E+01
(PID.TID 0000.0001) %MON dynstat_salt_sd              =   3.7891067115907E-01
(PID.TID 0000.0001) %MON dynstat_salt_del2            =   5.0643051333670E-07
(PID.TID 0000.0001) %MON dynstat_sst_max              =   2.6136819162962E+01
(PID.TID 0000.0001) %MON dynstat_sst_min              =   4.0063225660812E+00
(PID.TID 0000.0001) %MON dynstat_sst_mean             =   1.9641398458358E+01
(PID.TID 0000.0001) %MON dynstat_sst_sd               =   3.6389386840649E+00
(PID.TID 0000.0001) %MON dynstat_sst_del2             =   1.9082036785662E-05
(PID.TID 0000.0001) %MON dynstat_sss_max              =   3.7335740259532E+01
(PID.TID 0000.0001) %MON dynstat_sss_min              =   3.3093476384441E+01
(PID.TID 0000.0001) %MON dynstat_sss_mean             =   3.5868188162017E+01
(PID.TID 0000.0001) %MON dynstat_sss_sd               =   4.8719199640857E-01
(PID.TID 0000.0001) %MON dynstat_sss_del2             =   4.9628739461648E-06
(PID.TID 0000.0001) %MON forcing_qnet_max             =   1.1647599801180E+03
(PID.TID 0000.0001) %MON forcing_qnet_min             =  -2.7811620850823E+02
(PID.TID 0000.0001) %MON forcing_qnet_mean            =   2.4355756624657E+02
(PID.TID 0000.0001) %MON forcing_qnet_sd              =   1.4340793939371E+02
(PID.TID 0000.0001) %MON forcing_qnet_del2            =   1.6767060082615E-03
(PID.TID 0000.0001) %MON forcing_qsw_max              =   0.0000000000000E+00
(PID.TID 0000.0001) %MON forcing_qsw_min              =   0.0000000000000E+00
(PID.TID 0000.0001) %MON forcing_qsw_mean             =   0.0000000000000E+00
(PID.TID 0000.0001) %MON forcing_qsw_sd               =   0.0000000000000E+00
(PID.TID 0000.0001) %MON forcing_qsw_del2             =   0.0000000000000E+00
(PID.TID 0000.0001) %MON forcing_empmr_max            =   2.5850179497852E-04
(PID.TID 0000.0001) %MON forcing_empmr_min            =  -1.3964488495866E-03
(PID.TID 0000.0001) %MON forcing_empmr_mean           =   1.5193072827392E-05
(PID.TID 0000.0001) %MON forcing_empmr_sd             =   1.1564756977655E-04
(PID.TID 0000.0001) %MON forcing_empmr_del2           =   2.9486196361520E-09
(PID.TID 0000.0001) %MON forcing_fu_max               =   8.3265835901415E-01
(PID.TID 0000.0001) %MON forcing_fu_min               =  -4.1637249197479E-01
(PID.TID 0000.0001) %MON forcing_fu_mean              =   6.3036555012258E-02
(PID.TID 0000.0001) %MON forcing_fu_sd                =   1.5524985110756E-01
(PID.TID 0000.0001) %MON forcing_fu_del2              =   3.4391586774370E-07
(PID.TID 0000.0001) %MON forcing_fv_max               =   3.9284808859392E-01
(PID.TID 0000.0001) %MON forcing_fv_min               =  -5.6749199898056E-01
(PID.TID 0000.0001) %MON forcing_fv_mean              =   1.0642677827094E-02
(PID.TID 0000.0001) %MON forcing_fv_sd                =   1.0177757211116E-01
(PID.TID 0000.0001) %MON forcing_fv_del2              =   2.4857852412617E-07
(PID.TID 0000.0001) %MON trAdv_CFL_u_max              =   7.8837244854758E-02
(PID.TID 0000.0001) %MON trAdv_CFL_v_max              =   1.3766821990164E-01
(PID.TID 0000.0001) %MON trAdv_CFL_w_max              =   4.8640169266006E-01
(PID.TID 0000.0001) %MON advcfl_uvel_max              =   7.8837243781318E-02
(PID.TID 0000.0001) %MON advcfl_vvel_max              =   1.3770827603764E-01
(PID.TID 0000.0001) %MON advcfl_wvel_max              =   4.8263113690300E-01
(PID.TID 0000.0001) %MON advcfl_W_hf_max              =   4.8640169266006E-01
(PID.TID 0000.0001) %MON pe_b_mean                    =  -3.9008777622493E-04
(PID.TID 0000.0001) %MON ke_max                       =   2.1662428347934E+00
(PID.TID 0000.0001) %MON ke_mean                      =   2.5403377691670E-03
(PID.TID 0000.0001) %MON ke_vol                       =   4.5818637279723E+16
(PID.TID 0000.0001) %MON vort_r_min                   =  -5.0733907578395E-04
(PID.TID 0000.0001) %MON vort_r_max                   =   5.4586697948739E-04
(PID.TID 0000.0001) %MON vort_a_mean                  =   8.2147627054288E-05
(PID.TID 0000.0001) %MON vort_a_sd                    =   1.0128232559742E-05
(PID.TID 0000.0001) %MON vort_p_mean                  =   8.4848848493825E-05
(PID.TID 0000.0001) %MON vort_p_sd                    =   3.4971421257569E-05
(PID.TID 0000.0001) %MON surfExpan_theta_mean         =  -1.3638275838500E-04
(PID.TID 0000.0001) %MON surfExpan_salt_mean          =  -6.0026281641705E-04
(PID.TID 0000.0001) // =======================================================
(PID.TID 0000.0001) // End MONITOR dynamic field statistics
(PID.TID 0000.0001) // =======================================================
(PID.TID 0000.0001) // =======================================================
(PID.TID 0000.0001) // Begin OBCS MONITOR field statistics
(PID.TID 0000.0001) // =======================================================
(PID.TID 0000.0001) %MON obc_N_vVel_max               =   6.9533062238007E-01
(PID.TID 0000.0001) %MON obc_N_vVel_min               =  -3.2259805496536E-01
(PID.TID 0000.0001) %MON obc_N_vVel_mean              =   1.3537174950139E-02
(PID.TID 0000.0001) %MON obc_N_vVel_sd                =   6.4669900488856E-02
(PID.TID 0000.0001) %MON obc_N_vVel_Int               =   1.9378580279720E+08
(PID.TID 0000.0001) %MON obc_S_vVel_max               =   2.1788666012208E+00
(PID.TID 0000.0001) %MON obc_S_vVel_min               =  -2.6256909347755E-01
(PID.TID 0000.0001) %MON obc_S_vVel_mean              =  -7.1067361303629E-05
(PID.TID 0000.0001) %MON obc_S_vVel_sd                =   3.5965892379268E-02
(PID.TID 0000.0001) %MON obc_S_vVel_Int               =  -2.1634965501857E+06
(PID.TID 0000.0001) %MON obc_N_theta_max              =   1.6390332432041E+01
(PID.TID 0000.0001) %MON obc_N_theta_min              =   1.8895910213779E+00
(PID.TID 0000.0001) %MON obc_N_theta_mean             =   5.1589361969885E+00
(PID.TID 0000.0001) %MON obc_N_theta_sd               =   3.4826781859977E+00
(PID.TID 0000.0001) %MON obc_S_theta_max              =   2.5544324816130E+01
(PID.TID 0000.0001) %MON obc_S_theta_min              =   1.4632980186102E+00
(PID.TID 0000.0001) %MON obc_S_theta_mean             =   5.4595529500638E+00
(PID.TID 0000.0001) %MON obc_S_theta_sd               =   5.3559138080854E+00
(PID.TID 0000.0001) %MON obc_N_salt_max               =   3.5910865197779E+01
(PID.TID 0000.0001) %MON obc_N_salt_min               =   3.3295047085845E+01
(PID.TID 0000.0001) %MON obc_N_salt_mean              =   3.5114562540430E+01
(PID.TID 0000.0001) %MON obc_N_salt_sd                =   3.0984861319660E-01
(PID.TID 0000.0001) %MON obc_S_salt_max               =   3.7318305324317E+01
(PID.TID 0000.0001) %MON obc_S_salt_min               =   3.4844694627139E+01
(PID.TID 0000.0001) %MON obc_S_salt_mean              =   3.5168372507334E+01
(PID.TID 0000.0001) %MON obc_S_salt_sd                =   4.5716900135363E-01
(PID.TID 0000.0001) // =======================================================
(PID.TID 0000.0001) // End OBCS MONITOR field statistics
(PID.TID 0000.0001) // =======================================================
(PID.TID 0000.0001) // =======================================================
(PID.TID 0000.0001) // Begin MONITOR EXF statistics
(PID.TID 0000.0001) // =======================================================
(PID.TID 0000.0001) %MON exf_tsnumber                 =                     6
(PID.TID 0000.0001) %MON exf_time_sec                 =   1.4400000000000E+03
(PID.TID 0000.0001) %MON exf_ustress_max              =   8.3231548005834E-01
(PID.TID 0000.0001) %MON exf_ustress_min              =  -4.1349180818901E-01
(PID.TID 0000.0001) %MON exf_ustress_mean             =   6.3025861421864E-02
(PID.TID 0000.0001) %MON exf_ustress_sd               =   1.5500067700844E-01
(PID.TID 0000.0001) %MON exf_ustress_del2             =   3.8057681993750E-07
(PID.TID 0000.0001) %MON exf_vstress_max              =   3.9161750618008E-01
(PID.TID 0000.0001) %MON exf_vstress_min              =  -5.6326445203678E-01
(PID.TID 0000.0001) %MON exf_vstress_mean             =   1.0686795353313E-02
(PID.TID 0000.0001) %MON exf_vstress_sd               =   1.0148919328651E-01
(PID.TID 0000.0001) %MON exf_vstress_del2             =   2.6502116036237E-07
(PID.TID 0000.0001) %MON exf_hflux_max                =   1.1510867307485E+03
(PID.TID 0000.0001) %MON exf_hflux_min                =  -2.7784108413120E+02
(PID.TID 0000.0001) %MON exf_hflux_mean               =   2.4077418436682E+02
(PID.TID 0000.0001) %MON exf_hflux_sd                 =   1.4076900572500E+02
(PID.TID 0000.0001) %MON exf_hflux_del2               =   6.0877019779611E-02
(PID.TID 0000.0001) %MON exf_sflux_max                =   2.5770224059775E-07
(PID.TID 0000.0001) %MON exf_sflux_min                =  -1.5214567027250E-06
(PID.TID 0000.0001) %MON exf_sflux_mean               =   1.6086602779084E-08
(PID.TID 0000.0001) %MON exf_sflux_sd                 =   1.2268385750096E-07
(PID.TID 0000.0001) %MON exf_sflux_del2               =   2.1799968470425E-11
(PID.TID 0000.0001) %MON exf_uwind_max                =   1.9558347851760E+01
(PID.TID 0000.0001) %MON exf_uwind_min                =  -1.4964401369339E+01
(PID.TID 0000.0001) %MON exf_uwind_mean               =   2.4736843964233E+00
(PID.TID 0000.0001) %MON exf_uwind_sd                 =   6.6699217207992E+00
(PID.TID 0000.0001) %MON exf_uwind_del2               =   1.5431206962143E-03
(PID.TID 0000.0001) %MON exf_vwind_max                =   1.4374658011720E+01
(PID.TID 0000.0001) %MON exf_vwind_min                =  -1.2776257588086E+01
(PID.TID 0000.0001) %MON exf_vwind_mean               =   8.5515564667842E-01
(PID.TID 0000.0001) %MON exf_vwind_sd                 =   5.1837142642917E+00
(PID.TID 0000.0001) %MON exf_vwind_del2               =   1.1521222246028E-03
(PID.TID 0000.0001) %MON exf_wspeed_max               =   2.0362498482358E+01
(PID.TID 0000.0001) %MON exf_wspeed_min               =   1.2726385681045E-02
(PID.TID 0000.0001) %MON exf_wspeed_mean              =   7.7175969330748E+00
(PID.TID 0000.0001) %MON exf_wspeed_sd                =   4.3183159434156E+00
(PID.TID 0000.0001) %MON exf_wspeed_del2              =   1.9255897831440E-03
(PID.TID 0000.0001) %MON exf_atemp_max                =   2.9816464043476E+02
(PID.TID 0000.0001) %MON exf_atemp_min                =   2.7439815142379E+02
(PID.TID 0000.0001) %MON exf_atemp_mean               =   2.9068341955631E+02
(PID.TID 0000.0001) %MON exf_atemp_sd                 =   3.9434957823437E+00
(PID.TID 0000.0001) %MON exf_atemp_del2               =   3.7831437174351E-03
(PID.TID 0000.0001) %MON exf_aqh_max                  =   1.6780557728087E-02
(PID.TID 0000.0001) %MON exf_aqh_min                  =   2.7262947458965E-03
(PID.TID 0000.0001) %MON exf_aqh_mean                 =   9.4216435846590E-03
(PID.TID 0000.0001) %MON exf_aqh_sd                   =   2.8726801694255E-03
(PID.TID 0000.0001) %MON exf_aqh_del2                 =   2.0698169791903E-06
(PID.TID 0000.0001) %MON exf_lwflux_max               =   1.5056904713018E+02
(PID.TID 0000.0001) %MON exf_lwflux_min               =   3.2739992411888E+00
(PID.TID 0000.0001) %MON exf_lwflux_mean              =   6.6592615734459E+01
(PID.TID 0000.0001) %MON exf_lwflux_sd                =   2.4690407776083E+01
(PID.TID 0000.0001) %MON exf_lwflux_del2              =   1.5133284170768E-02
(PID.TID 0000.0001) %MON exf_evap_max                 =   2.7644079437213E-07
(PID.TID 0000.0001) %MON exf_evap_min                 =  -9.4057630104496E-08
(PID.TID 0000.0001) %MON exf_evap_mean                =   5.9296756505433E-08
(PID.TID 0000.0001) %MON exf_evap_sd                  =   4.2063298708523E-08
(PID.TID 0000.0001) %MON exf_evap_del2                =   1.5839950711586E-11
(PID.TID 0000.0001) %MON exf_precip_max               =   1.6964377496601E-06
(PID.TID 0000.0001) %MON exf_precip_min               =   0.0000000000000E+00
(PID.TID 0000.0001) %MON exf_precip_mean              =   4.1621674321131E-08
(PID.TID 0000.0001) %MON exf_precip_sd                =   1.2611994878121E-07
(PID.TID 0000.0001) %MON exf_precip_del2              =   2.3651729493770E-11
(PID.TID 0000.0001) %MON exf_swflux_max               =   0.0000000000000E+00
(PID.TID 0000.0001) %MON exf_swflux_min               =   0.0000000000000E+00
(PID.TID 0000.0001) %MON exf_swflux_mean              =   0.0000000000000E+00
(PID.TID 0000.0001) %MON exf_swflux_sd                =   0.0000000000000E+00
(PID.TID 0000.0001) %MON exf_swflux_del2              =   0.0000000000000E+00
(PID.TID 0000.0001) %MON exf_swdown_max               =   0.0000000000000E+00
(PID.TID 0000.0001) %MON exf_swdown_min               =   0.0000000000000E+00
(PID.TID 0000.0001) %MON exf_swdown_mean              =   0.0000000000000E+00
(PID.TID 0000.0001) %MON exf_swdown_sd                =   0.0000000000000E+00
(PID.TID 0000.0001) %MON exf_swdown_del2              =   0.0000000000000E+00
(PID.TID 0000.0001) %MON exf_lwdown_max               =   4.0922404091225E+02
(PID.TID 0000.0001) %MON exf_lwdown_min               =   2.2687892042835E+02
(PID.TID 0000.0001) %MON exf_lwdown_mean              =   3.4842407940767E+02
(PID.TID 0000.0001) %MON exf_lwdown_sd                =   2.9896536470828E+01
(PID.TID 0000.0001) %MON exf_lwdown_del2              =   7.4586700694824E-02
(PID.TID 0000.0001) %MON exf_apressure_max            =   1.0279447202553E+05
(PID.TID 0000.0001) %MON exf_apressure_min            =   1.0000228416919E+05
(PID.TID 0000.0001) %MON exf_apressure_mean           =   1.0216374261970E+05
(PID.TID 0000.0001) %MON exf_apressure_sd             =   4.9917253457380E+02
(PID.TID 0000.0001) %MON exf_apressure_del2           =   2.1827858824662E+01
(PID.TID 0000.0001) %MON exf_runoff_max               =   4.4374791284855E-08
(PID.TID 0000.0001) %MON exf_runoff_min               =   0.0000000000000E+00
(PID.TID 0000.0001) %MON exf_runoff_mean              =   1.5884794052193E-09
(PID.TID 0000.0001) %MON exf_runoff_sd                =   5.3901957917178E-09
(PID.TID 0000.0001) %MON exf_runoff_del2              =   1.1512509897985E-12
(PID.TID 0000.0001) // =======================================================
(PID.TID 0000.0001) // End MONITOR EXF statistics
(PID.TID 0000.0001) // =======================================================
 cg2d: Sum(rhs),rhsMax =   6.62121604486753E+02  6.16023402447332E-02
(PID.TID 0000.0001)      cg2d_init_res =   1.48075488541816E+00
(PID.TID 0000.0001)      cg2d_iters(min,last) =      -1     315
(PID.TID 0000.0001)      cg2d_last_res =   6.77650034498503E-12
(PID.TID 0000.0001) // =======================================================
(PID.TID 0000.0001) // Begin MONITOR dynamic field statistics
(PID.TID 0000.0001) // =======================================================
(PID.TID 0000.0001) %MON time_tsnumber                =                     7
(PID.TID 0000.0001) %MON time_secondsf                =   1.6800000000000E+03
(PID.TID 0000.0001) %MON dynstat_eta_max              =   1.0214638116651E+00
(PID.TID 0000.0001) %MON dynstat_eta_min              =  -1.2370549964931E+00
(PID.TID 0000.0001) %MON dynstat_eta_mean             =  -2.2516836340812E-02
(PID.TID 0000.0001) %MON dynstat_eta_sd               =   2.0279752020764E-01
(PID.TID 0000.0001) %MON dynstat_eta_del2             =   2.4129341389563E-06
(PID.TID 0000.0001) %MON dynstat_uvel_max             =   1.2999355749554E+00
(PID.TID 0000.0001) %MON dynstat_uvel_min             =  -7.0950109491871E-01
(PID.TID 0000.0001) %MON dynstat_uvel_mean            =   2.8960712040550E-03
(PID.TID 0000.0001) %MON dynstat_uvel_sd              =   5.2363868061894E-02
(PID.TID 0000.0001) %MON dynstat_uvel_del2            =   4.8239431425060E-07
(PID.TID 0000.0001) %MON dynstat_vvel_max             =   2.2418623661086E+00
(PID.TID 0000.0001) %MON dynstat_vvel_min             =  -9.1279556263213E-01
(PID.TID 0000.0001) %MON dynstat_vvel_mean            =  -3.0709802168375E-03
(PID.TID 0000.0001) %MON dynstat_vvel_sd              =   4.8701224704287E-02
(PID.TID 0000.0001) %MON dynstat_vvel_del2            =   4.4152595677362E-07
(PID.TID 0000.0001) %MON dynstat_wvel_max             =   3.6070934019256E-02
(PID.TID 0000.0001) %MON dynstat_wvel_min             =  -2.9015698440056E-02
(PID.TID 0000.0001) %MON dynstat_wvel_mean            =  -1.0345911775194E-05
(PID.TID 0000.0001) %MON dynstat_wvel_sd              =   5.8956137296167E-04
(PID.TID 0000.0001) %MON dynstat_wvel_del2            =   7.4969024272882E-08
(PID.TID 0000.0001) %MON dynstat_theta_max            =   2.6139699696674E+01
(PID.TID 0000.0001) %MON dynstat_theta_min            =   1.4688643051301E+00
(PID.TID 0000.0001) %MON dynstat_theta_mean           =   5.5098442150966E+00
(PID.TID 0000.0001) %MON dynstat_theta_sd             =   4.7733607559842E+00
(PID.TID 0000.0001) %MON dynstat_theta_del2           =   4.0162733466765E-06
(PID.TID 0000.0001) %MON dynstat_salt_max             =   3.9170611497148E+01
(PID.TID 0000.0001) %MON dynstat_salt_min             =   3.3094300024482E+01
(PID.TID 0000.0001) %MON dynstat_salt_mean            =   3.5173366586438E+01
(PID.TID 0000.0001) %MON dynstat_salt_sd              =   3.7891076582321E-01
(PID.TID 0000.0001) %MON dynstat_salt_del2            =   5.1017448606753E-07
(PID.TID 0000.0001) %MON dynstat_sst_max              =   2.6136727812478E+01
(PID.TID 0000.0001) %MON dynstat_sst_min              =   3.9922110966904E+00
(PID.TID 0000.0001) %MON dynstat_sst_mean             =   1.9640471247988E+01
(PID.TID 0000.0001) %MON dynstat_sst_sd               =   3.6389807001659E+00
(PID.TID 0000.0001) %MON dynstat_sst_del2             =   1.9095137947038E-05
(PID.TID 0000.0001) %MON dynstat_sss_max              =   3.7335822868401E+01
(PID.TID 0000.0001) %MON dynstat_sss_min              =   3.3094300024482E+01
(PID.TID 0000.0001) %MON dynstat_sss_mean             =   3.5868226127141E+01
(PID.TID 0000.0001) %MON dynstat_sss_sd               =   4.8719243168605E-01
(PID.TID 0000.0001) %MON dynstat_sss_del2             =   4.9538878633431E-06
(PID.TID 0000.0001) %MON forcing_qnet_max             =   1.1685195295733E+03
(PID.TID 0000.0001) %MON forcing_qnet_min             =  -2.8274265289218E+02
(PID.TID 0000.0001) %MON forcing_qnet_mean            =   2.4279132373928E+02
(PID.TID 0000.0001) %MON forcing_qnet_sd              =   1.4276003337510E+02
(PID.TID 0000.0001) %MON forcing_qnet_del2            =   1.6734674526910E-03
(PID.TID 0000.0001) %MON forcing_qsw_max              =   0.0000000000000E+00
(PID.TID 0000.0001) %MON forcing_qsw_min              =   0.0000000000000E+00
(PID.TID 0000.0001) %MON forcing_qsw_mean             =   0.0000000000000E+00
(PID.TID 0000.0001) %MON forcing_qsw_sd               =   0.0000000000000E+00
(PID.TID 0000.0001) %MON forcing_qsw_del2             =   0.0000000000000E+00
(PID.TID 0000.0001) %MON forcing_empmr_max            =   2.5770224059775E-04
(PID.TID 0000.0001) %MON forcing_empmr_min            =  -1.5214567027250E-03
(PID.TID 0000.0001) %MON forcing_empmr_mean           =   1.6086602779084E-05
(PID.TID 0000.0001) %MON forcing_empmr_sd             =   1.2268385750096E-04
(PID.TID 0000.0001) %MON forcing_empmr_del2           =   3.1386516584080E-09
(PID.TID 0000.0001) %MON forcing_fu_max               =   8.3112840668760E-01
(PID.TID 0000.0001) %MON forcing_fu_min               =  -4.1343644043648E-01
(PID.TID 0000.0001) %MON forcing_fu_mean              =   6.3084214350706E-02
(PID.TID 0000.0001) %MON forcing_fu_sd                =   1.5506028881657E-01
(PID.TID 0000.0001) %MON forcing_fu_del2              =   3.3925270944396E-07
(PID.TID 0000.0001) %MON forcing_fv_max               =   3.9115626203163E-01
(PID.TID 0000.0001) %MON forcing_fv_min               =  -5.6669979208715E-01
(PID.TID 0000.0001) %MON forcing_fv_mean              =   1.0667474264224E-02
(PID.TID 0000.0001) %MON forcing_fv_sd                =   1.0162031674200E-01
(PID.TID 0000.0001) %MON forcing_fv_del2              =   2.4449309884385E-07
(PID.TID 0000.0001) %MON trAdv_CFL_u_max              =   7.8868083043834E-02
(PID.TID 0000.0001) %MON trAdv_CFL_v_max              =   1.4164850708792E-01
(PID.TID 0000.0001) %MON trAdv_CFL_w_max              =   5.2149208649650E-01
(PID.TID 0000.0001) %MON advcfl_uvel_max              =   7.8868081969974E-02
(PID.TID 0000.0001) %MON advcfl_vvel_max              =   1.4168972133379E-01
(PID.TID 0000.0001) %MON advcfl_wvel_max              =   5.1744951218257E-01
(PID.TID 0000.0001) %MON advcfl_W_hf_max              =   5.2149208649650E-01
(PID.TID 0000.0001) %MON pe_b_mean                    =  -4.9504596357813E-04
(PID.TID 0000.0001) %MON ke_max                       =   2.2935825691395E+00
(PID.TID 0000.0001) %MON ke_mean                      =   2.5468442413053E-03
(PID.TID 0000.0001) %MON ke_vol                       =   4.5818637279723E+16
(PID.TID 0000.0001) %MON vort_r_min                   =  -5.1174151726987E-04
(PID.TID 0000.0001) %MON vort_r_max                   =   5.6464324757678E-04
(PID.TID 0000.0001) %MON vort_a_mean                  =   8.2147626272989E-05
(PID.TID 0000.0001) %MON vort_a_sd                    =   1.0131276818538E-05
(PID.TID 0000.0001) %MON vort_p_mean                  =   8.4848847686836E-05
(PID.TID 0000.0001) %MON vort_p_sd                    =   3.4970909237134E-05
(PID.TID 0000.0001) %MON surfExpan_theta_mean         =  -1.7953870470474E-04
(PID.TID 0000.0001) %MON surfExpan_salt_mean          =  -6.7098604239422E-04
(PID.TID 0000.0001) // =======================================================
(PID.TID 0000.0001) // End MONITOR dynamic field statistics
(PID.TID 0000.0001) // =======================================================
(PID.TID 0000.0001) // =======================================================
(PID.TID 0000.0001) // Begin OBCS MONITOR field statistics
(PID.TID 0000.0001) // =======================================================
(PID.TID 0000.0001) %MON obc_N_vVel_max               =   6.9521236116019E-01
(PID.TID 0000.0001) %MON obc_N_vVel_min               =  -3.2280691227700E-01
(PID.TID 0000.0001) %MON obc_N_vVel_mean              =   1.3558519772720E-02
(PID.TID 0000.0001) %MON obc_N_vVel_sd                =   6.4657344949975E-02
(PID.TID 0000.0001) %MON obc_N_vVel_Int               =   1.9409135573529E+08
(PID.TID 0000.0001) %MON obc_S_vVel_max               =   2.2418623661086E+00
(PID.TID 0000.0001) %MON obc_S_vVel_min               =  -2.6267591393568E-01
(PID.TID 0000.0001) %MON obc_S_vVel_mean              =  -7.7413489822455E-04
(PID.TID 0000.0001) %MON obc_S_vVel_sd                =   3.6015630243837E-02
(PID.TID 0000.0001) %MON obc_S_vVel_Int               =  -2.3566911039958E+07
(PID.TID 0000.0001) %MON obc_N_theta_max              =   1.6390244329854E+01
(PID.TID 0000.0001) %MON obc_N_theta_min              =   1.8895910704432E+00
(PID.TID 0000.0001) %MON obc_N_theta_mean             =   5.1589288128385E+00
(PID.TID 0000.0001) %MON obc_N_theta_sd               =   3.4826688944174E+00
(PID.TID 0000.0001) %MON obc_S_theta_max              =   2.5544222067351E+01
(PID.TID 0000.0001) %MON obc_S_theta_min              =   1.4632984148975E+00
(PID.TID 0000.0001) %MON obc_S_theta_mean             =   5.4595521450393E+00
(PID.TID 0000.0001) %MON obc_S_theta_sd               =   5.3559099369382E+00
(PID.TID 0000.0001) %MON obc_N_salt_max               =   3.5910864789416E+01
(PID.TID 0000.0001) %MON obc_N_salt_min               =   3.3295052588478E+01
(PID.TID 0000.0001) %MON obc_N_salt_mean              =   3.5114562244443E+01
(PID.TID 0000.0001) %MON obc_N_salt_sd                =   3.0984849391641E-01
(PID.TID 0000.0001) %MON obc_S_salt_max               =   3.7318298439933E+01
(PID.TID 0000.0001) %MON obc_S_salt_min               =   3.4844694679359E+01
(PID.TID 0000.0001) %MON obc_S_salt_mean              =   3.5168372435418E+01
(PID.TID 0000.0001) %MON obc_S_salt_sd                =   4.5716865028938E-01
(PID.TID 0000.0001) // =======================================================
(PID.TID 0000.0001) // End OBCS MONITOR field statistics
(PID.TID 0000.0001) // =======================================================
(PID.TID 0000.0001) // =======================================================
(PID.TID 0000.0001) // Begin MONITOR EXF statistics
(PID.TID 0000.0001) // =======================================================
(PID.TID 0000.0001) %MON exf_tsnumber                 =                     7
(PID.TID 0000.0001) %MON exf_time_sec                 =   1.6800000000000E+03
(PID.TID 0000.0001) %MON exf_ustress_max              =   8.3374719260297E-01
(PID.TID 0000.0001) %MON exf_ustress_min              =  -4.1067726510867E-01
(PID.TID 0000.0001) %MON exf_ustress_mean             =   6.3099304466818E-02
(PID.TID 0000.0001) %MON exf_ustress_sd               =   1.5489154102636E-01
(PID.TID 0000.0001) %MON exf_ustress_del2             =   3.7881632626163E-07
(PID.TID 0000.0001) %MON exf_vstress_max              =   3.9086857988371E-01
(PID.TID 0000.0001) %MON exf_vstress_min              =  -5.6271916772323E-01
(PID.TID 0000.0001) %MON exf_vstress_mean             =   1.0722339699041E-02
(PID.TID 0000.0001) %MON exf_vstress_sd               =   1.0140774581607E-01
(PID.TID 0000.0001) %MON exf_vstress_del2             =   2.6480584263697E-07
(PID.TID 0000.0001) %MON exf_hflux_max                =   1.1549765705726E+03
(PID.TID 0000.0001) %MON exf_hflux_min                =  -2.8259327147471E+02
(PID.TID 0000.0001) %MON exf_hflux_mean               =   2.3995353181881E+02
(PID.TID 0000.0001) %MON exf_hflux_sd                 =   1.4037019277126E+02
(PID.TID 0000.0001) %MON exf_hflux_del2               =   6.0673880523478E-02
(PID.TID 0000.0001) %MON exf_sflux_max                =   2.5694749973378E-07
(PID.TID 0000.0001) %MON exf_sflux_min                =  -1.6464736529565E-06
(PID.TID 0000.0001) %MON exf_sflux_mean               =   1.6988683928686E-08
(PID.TID 0000.0001) %MON exf_sflux_sd                 =   1.3056309369258E-07
(PID.TID 0000.0001) %MON exf_sflux_del2               =   2.2986624529884E-11
(PID.TID 0000.0001) %MON exf_uwind_max                =   1.9546146507823E+01
(PID.TID 0000.0001) %MON exf_uwind_min                =  -1.4931455747280E+01
(PID.TID 0000.0001) %MON exf_uwind_mean               =   2.4754530608528E+00
(PID.TID 0000.0001) %MON exf_uwind_sd                 =   6.6679008992689E+00
(PID.TID 0000.0001) %MON exf_uwind_del2               =   1.5424036794618E-03
(PID.TID 0000.0001) %MON exf_vwind_max                =   1.4377474320248E+01
(PID.TID 0000.0001) %MON exf_vwind_min                =  -1.2774131875976E+01
(PID.TID 0000.0001) %MON exf_vwind_mean               =   8.5690839509974E-01
(PID.TID 0000.0001) %MON exf_vwind_sd                 =   5.1795704798594E+00
(PID.TID 0000.0001) %MON exf_vwind_del2               =   1.1515801170354E-03
(PID.TID 0000.0001) %MON exf_wspeed_max               =   2.0328453501234E+01
(PID.TID 0000.0001) %MON exf_wspeed_min               =   9.8540954333550E-03
(PID.TID 0000.0001) %MON exf_wspeed_mean              =   7.7139510302943E+00
(PID.TID 0000.0001) %MON exf_wspeed_sd                =   4.3180982057616E+00
(PID.TID 0000.0001) %MON exf_wspeed_del2              =   1.9246935675955E-03
(PID.TID 0000.0001) %MON exf_atemp_max                =   2.9816244314634E+02
(PID.TID 0000.0001) %MON exf_atemp_min                =   2.7437255021515E+02
(PID.TID 0000.0001) %MON exf_atemp_mean               =   2.9068029835011E+02
(PID.TID 0000.0001) %MON exf_atemp_sd                 =   3.9436720807438E+00
(PID.TID 0000.0001) %MON exf_atemp_del2               =   3.7825169343821E-03
(PID.TID 0000.0001) %MON exf_aqh_max                  =   1.6773571427214E-02
(PID.TID 0000.0001) %MON exf_aqh_min                  =   2.7240000481325E-03
(PID.TID 0000.0001) %MON exf_aqh_mean                 =   9.4204554318449E-03
(PID.TID 0000.0001) %MON exf_aqh_sd                   =   2.8730375899859E-03
(PID.TID 0000.0001) %MON exf_aqh_del2                 =   2.0695453584003E-06
(PID.TID 0000.0001) %MON exf_lwflux_max               =   1.5197376774461E+02
(PID.TID 0000.0001) %MON exf_lwflux_min               =  -3.7856900581797E+00
(PID.TID 0000.0001) %MON exf_lwflux_mean              =   6.5817269426740E+01
(PID.TID 0000.0001) %MON exf_lwflux_sd                =   2.6098607868587E+01
(PID.TID 0000.0001) %MON exf_lwflux_del2              =   1.5095977640285E-02
(PID.TID 0000.0001) %MON exf_evap_max                 =   2.7803069327919E-07
(PID.TID 0000.0001) %MON exf_evap_min                 =  -9.4797528759944E-08
(PID.TID 0000.0001) %MON exf_evap_mean                =   5.9274971826187E-08
(PID.TID 0000.0001) %MON exf_evap_sd                  =   4.2041959895360E-08
(PID.TID 0000.0001) %MON exf_evap_del2                =   1.5832482223367E-11
(PID.TID 0000.0001) %MON exf_precip_max               =   1.8220998051905E-06
(PID.TID 0000.0001) %MON exf_precip_min               =   0.0000000000000E+00
(PID.TID 0000.0001) %MON exf_precip_mean              =   4.0697808492282E-08
(PID.TID 0000.0001) %MON exf_precip_sd                =   1.3500754762119E-07
(PID.TID 0000.0001) %MON exf_precip_del2              =   2.4913612013506E-11
(PID.TID 0000.0001) %MON exf_swflux_max               =   0.0000000000000E+00
(PID.TID 0000.0001) %MON exf_swflux_min               =   0.0000000000000E+00
(PID.TID 0000.0001) %MON exf_swflux_mean              =   0.0000000000000E+00
(PID.TID 0000.0001) %MON exf_swflux_sd                =   0.0000000000000E+00
(PID.TID 0000.0001) %MON exf_swflux_del2              =   0.0000000000000E+00
(PID.TID 0000.0001) %MON exf_swdown_max               =   0.0000000000000E+00
(PID.TID 0000.0001) %MON exf_swdown_min               =   0.0000000000000E+00
(PID.TID 0000.0001) %MON exf_swdown_mean              =   0.0000000000000E+00
(PID.TID 0000.0001) %MON exf_swdown_sd                =   0.0000000000000E+00
(PID.TID 0000.0001) %MON exf_swdown_del2              =   0.0000000000000E+00
(PID.TID 0000.0001) %MON exf_lwdown_max               =   4.1505412793497E+02
(PID.TID 0000.0001) %MON exf_lwdown_min               =   2.2448607473773E+02
(PID.TID 0000.0001) %MON exf_lwdown_mean              =   3.4921813338793E+02
(PID.TID 0000.0001) %MON exf_lwdown_sd                =   3.1302832687845E+01
(PID.TID 0000.0001) %MON exf_lwdown_del2              =   7.4774831322968E-02
(PID.TID 0000.0001) %MON exf_apressure_max            =   1.0279678232205E+05
(PID.TID 0000.0001) %MON exf_apressure_min            =   1.0000622433023E+05
(PID.TID 0000.0001) %MON exf_apressure_mean           =   1.0216451992626E+05
(PID.TID 0000.0001) %MON exf_apressure_sd             =   4.9900957732261E+02
(PID.TID 0000.0001) %MON exf_apressure_del2           =   2.1828027747687E+01
(PID.TID 0000.0001) %MON exf_runoff_max               =   4.4374791284855E-08
(PID.TID 0000.0001) %MON exf_runoff_min               =   0.0000000000000E+00
(PID.TID 0000.0001) %MON exf_runoff_mean              =   1.5884794052193E-09
(PID.TID 0000.0001) %MON exf_runoff_sd                =   5.3901957917178E-09
(PID.TID 0000.0001) %MON exf_runoff_del2              =   1.1512509897985E-12
(PID.TID 0000.0001) // =======================================================
(PID.TID 0000.0001) // End MONITOR EXF statistics
(PID.TID 0000.0001) // =======================================================
 cg2d: Sum(rhs),rhsMax =   8.11432175923066E+02  6.48560763976181E-02
(PID.TID 0000.0001)      cg2d_init_res =   1.50165902402794E+00
(PID.TID 0000.0001)      cg2d_iters(min,last) =      -1     315
(PID.TID 0000.0001)      cg2d_last_res =   6.57685502124665E-12
(PID.TID 0000.0001) // =======================================================
(PID.TID 0000.0001) // Begin MONITOR dynamic field statistics
(PID.TID 0000.0001) // =======================================================
(PID.TID 0000.0001) %MON time_tsnumber                =                     8
(PID.TID 0000.0001) %MON time_secondsf                =   1.9200000000000E+03
(PID.TID 0000.0001) %MON dynstat_eta_max              =   1.0034583197882E+00
(PID.TID 0000.0001) %MON dynstat_eta_min              =  -1.2662732078706E+00
(PID.TID 0000.0001) %MON dynstat_eta_mean             =  -2.7594456038165E-02
(PID.TID 0000.0001) %MON dynstat_eta_sd               =   2.1633677758884E-01
(PID.TID 0000.0001) %MON dynstat_eta_del2             =   2.4631578252181E-06
(PID.TID 0000.0001) %MON dynstat_uvel_max             =   1.2988002215031E+00
(PID.TID 0000.0001) %MON dynstat_uvel_min             =  -7.0420176591182E-01
(PID.TID 0000.0001) %MON dynstat_uvel_mean            =   2.6656460547980E-03
(PID.TID 0000.0001) %MON dynstat_uvel_sd              =   5.2331380645605E-02
(PID.TID 0000.0001) %MON dynstat_uvel_del2            =   4.9209140910506E-07
(PID.TID 0000.0001) %MON dynstat_vvel_max             =   2.3044155098749E+00
(PID.TID 0000.0001) %MON dynstat_vvel_min             =  -9.1534979093123E-01
(PID.TID 0000.0001) %MON dynstat_vvel_mean            =  -3.3764074622052E-03
(PID.TID 0000.0001) %MON dynstat_vvel_sd              =   4.8857596264683E-02
(PID.TID 0000.0001) %MON dynstat_vvel_del2            =   4.5067423380277E-07
(PID.TID 0000.0001) %MON dynstat_wvel_max             =   3.5629135293183E-02
(PID.TID 0000.0001) %MON dynstat_wvel_min             =  -2.8346118562984E-02
(PID.TID 0000.0001) %MON dynstat_wvel_mean            =  -1.1519436772765E-05
(PID.TID 0000.0001) %MON dynstat_wvel_sd              =   5.9348190753479E-04
(PID.TID 0000.0001) %MON dynstat_wvel_del2            =   7.4958815592195E-08
(PID.TID 0000.0001) %MON dynstat_theta_max            =   2.6139142686309E+01
(PID.TID 0000.0001) %MON dynstat_theta_min            =   1.4688644405106E+00
(PID.TID 0000.0001) %MON dynstat_theta_mean           =   5.5098462336621E+00
(PID.TID 0000.0001) %MON dynstat_theta_sd             =   4.7733460689929E+00
(PID.TID 0000.0001) %MON dynstat_theta_del2           =   4.0196149516235E-06
(PID.TID 0000.0001) %MON dynstat_salt_max             =   3.9167319796987E+01
(PID.TID 0000.0001) %MON dynstat_salt_min             =   3.3095172997035E+01
(PID.TID 0000.0001) %MON dynstat_salt_mean            =   3.5173366185017E+01
(PID.TID 0000.0001) %MON dynstat_salt_sd              =   3.7891110226357E-01
(PID.TID 0000.0001) %MON dynstat_salt_del2            =   5.1388377891690E-07
(PID.TID 0000.0001) %MON dynstat_sst_max              =   2.6135525059309E+01
(PID.TID 0000.0001) %MON dynstat_sst_min              =   3.9780321488172E+00
(PID.TID 0000.0001) %MON dynstat_sst_mean             =   1.9639613224658E+01
(PID.TID 0000.0001) %MON dynstat_sst_sd               =   3.6390225377672E+00
(PID.TID 0000.0001) %MON dynstat_sst_del2             =   1.9110204491711E-05
(PID.TID 0000.0001) %MON dynstat_sss_max              =   3.7335905063009E+01
(PID.TID 0000.0001) %MON dynstat_sss_min              =   3.3095172997035E+01
(PID.TID 0000.0001) %MON dynstat_sss_mean             =   3.5868263090578E+01
(PID.TID 0000.0001) %MON dynstat_sss_sd               =   4.8719303995377E-01
(PID.TID 0000.0001) %MON dynstat_sss_del2             =   4.9456215863717E-06
(PID.TID 0000.0001) %MON forcing_qnet_max             =   1.1724882856598E+03
(PID.TID 0000.0001) %MON forcing_qnet_min             =  -2.8741685359068E+02
(PID.TID 0000.0001) %MON forcing_qnet_mean            =   2.4205281168426E+02
(PID.TID 0000.0001) %MON forcing_qnet_sd              =   1.4220403772643E+02
(PID.TID 0000.0001) %MON forcing_qnet_del2            =   1.6732435033643E-03
(PID.TID 0000.0001) %MON forcing_qsw_max              =   0.0000000000000E+00
(PID.TID 0000.0001) %MON forcing_qsw_min              =   0.0000000000000E+00
(PID.TID 0000.0001) %MON forcing_qsw_mean             =   0.0000000000000E+00
(PID.TID 0000.0001) %MON forcing_qsw_sd               =   0.0000000000000E+00
(PID.TID 0000.0001) %MON forcing_qsw_del2             =   0.0000000000000E+00
(PID.TID 0000.0001) %MON forcing_empmr_max            =   2.5694749973378E-04
(PID.TID 0000.0001) %MON forcing_empmr_min            =  -1.6464736529565E-03
(PID.TID 0000.0001) %MON forcing_empmr_mean           =   1.6988683928686E-05
(PID.TID 0000.0001) %MON forcing_empmr_sd             =   1.3056309369258E-04
(PID.TID 0000.0001) %MON forcing_empmr_del2           =   3.3489912958406E-09
(PID.TID 0000.0001) %MON forcing_fu_max               =   8.3327240193493E-01
(PID.TID 0000.0001) %MON forcing_fu_min               =  -4.1062515364188E-01
(PID.TID 0000.0001) %MON forcing_fu_mean              =   6.3158111812962E-02
(PID.TID 0000.0001) %MON forcing_fu_sd                =   1.5495133654013E-01
(PID.TID 0000.0001) %MON forcing_fu_del2              =   3.3763273436552E-07
(PID.TID 0000.0001) %MON forcing_fv_max               =   3.9065709321532E-01
(PID.TID 0000.0001) %MON forcing_fv_min               =  -5.6634802382445E-01
(PID.TID 0000.0001) %MON forcing_fv_mean              =   1.0703325358343E-02
(PID.TID 0000.0001) %MON forcing_fv_sd                =   1.0153915881732E-01
(PID.TID 0000.0001) %MON forcing_fv_del2              =   2.4416970429812E-07
(PID.TID 0000.0001) %MON trAdv_CFL_u_max              =   7.8799200283734E-02
(PID.TID 0000.0001) %MON trAdv_CFL_v_max              =   1.4560082796279E-01
(PID.TID 0000.0001) %MON trAdv_CFL_w_max              =   5.3551901973265E-01
(PID.TID 0000.0001) %MON advcfl_uvel_max              =   7.8799199210812E-02
(PID.TID 0000.0001) %MON advcfl_vvel_max              =   1.4564319218142E-01
(PID.TID 0000.0001) %MON advcfl_wvel_max              =   5.3136770950216E-01
(PID.TID 0000.0001) %MON advcfl_W_hf_max              =   5.3551901973265E-01
(PID.TID 0000.0001) %MON pe_b_mean                    =  -6.1128644260262E-04
(PID.TID 0000.0001) %MON ke_max                       =   2.4136630451335E+00
(PID.TID 0000.0001) %MON ke_mean                      =   2.5530825945445E-03
(PID.TID 0000.0001) %MON ke_vol                       =   4.5818637279723E+16
(PID.TID 0000.0001) %MON vort_r_min                   =  -5.1449738150355E-04
(PID.TID 0000.0001) %MON vort_r_max                   =   6.0048964653355E-04
(PID.TID 0000.0001) %MON vort_a_mean                  =   8.2147625482279E-05
(PID.TID 0000.0001) %MON vort_a_sd                    =   1.0134613096930E-05
(PID.TID 0000.0001) %MON vort_p_mean                  =   8.4848846870124E-05
(PID.TID 0000.0001) %MON vort_p_sd                    =   3.4971246902809E-05
(PID.TID 0000.0001) %MON surfExpan_theta_mean         =  -2.2375327919604E-04
(PID.TID 0000.0001) %MON surfExpan_salt_mean          =  -7.4085802525515E-04
(PID.TID 0000.0001) // =======================================================
(PID.TID 0000.0001) // End MONITOR dynamic field statistics
(PID.TID 0000.0001) // =======================================================
(PID.TID 0000.0001) // =======================================================
(PID.TID 0000.0001) // Begin OBCS MONITOR field statistics
(PID.TID 0000.0001) // =======================================================
(PID.TID 0000.0001) %MON obc_N_vVel_max               =   6.9508252845469E-01
(PID.TID 0000.0001) %MON obc_N_vVel_min               =  -3.2303846185327E-01
(PID.TID 0000.0001) %MON obc_N_vVel_mean              =   1.3565341758323E-02
(PID.TID 0000.0001) %MON obc_N_vVel_sd                =   6.4642702525486E-02
(PID.TID 0000.0001) %MON obc_N_vVel_Int               =   1.9418901303540E+08
(PID.TID 0000.0001) %MON obc_S_vVel_max               =   2.3044155098749E+00
(PID.TID 0000.0001) %MON obc_S_vVel_min               =  -2.6277536312677E-01
(PID.TID 0000.0001) %MON obc_S_vVel_mean              =  -1.4753268654655E-03
(PID.TID 0000.0001) %MON obc_S_vVel_sd                =   3.6069865338561E-02
(PID.TID 0000.0001) %MON obc_S_vVel_Int               =  -4.4913227750133E+07
(PID.TID 0000.0001) %MON obc_N_theta_max              =   1.6390156227667E+01
(PID.TID 0000.0001) %MON obc_N_theta_min              =   1.8895911195086E+00
(PID.TID 0000.0001) %MON obc_N_theta_mean             =   5.1589214286885E+00
(PID.TID 0000.0001) %MON obc_N_theta_sd               =   3.4826596030751E+00
(PID.TID 0000.0001) %MON obc_S_theta_max              =   2.5544119318571E+01
(PID.TID 0000.0001) %MON obc_S_theta_min              =   1.4632988111847E+00
(PID.TID 0000.0001) %MON obc_S_theta_mean             =   5.4595513400147E+00
(PID.TID 0000.0001) %MON obc_S_theta_sd               =   5.3559060658268E+00
(PID.TID 0000.0001) %MON obc_N_salt_max               =   3.5910864381053E+01
(PID.TID 0000.0001) %MON obc_N_salt_min               =   3.3295058091112E+01
(PID.TID 0000.0001) %MON obc_N_salt_mean              =   3.5114561948456E+01
(PID.TID 0000.0001) %MON obc_N_salt_sd                =   3.0984837469682E-01
(PID.TID 0000.0001) %MON obc_S_salt_max               =   3.7318291555549E+01
(PID.TID 0000.0001) %MON obc_S_salt_min               =   3.4844694731580E+01
(PID.TID 0000.0001) %MON obc_S_salt_mean              =   3.5168372363501E+01
(PID.TID 0000.0001) %MON obc_S_salt_sd                =   4.5716829923579E-01
(PID.TID 0000.0001) // =======================================================
(PID.TID 0000.0001) // End OBCS MONITOR field statistics
(PID.TID 0000.0001) // =======================================================
(PID.TID 0000.0001)  EXF_INTERP_READ: opening file: era5/ERA5_rain_2008
(PID.TID 0000.0001)  EXF_INTERP_READ: opening file: era5/ERA5_dsw_2008
(PID.TID 0000.0001)  EXF_INTERP_READ: opening file: era5/ERA5_dlw_2008
(PID.TID 0000.0001) // =======================================================
(PID.TID 0000.0001) // Begin MONITOR EXF statistics
(PID.TID 0000.0001) // =======================================================
(PID.TID 0000.0001) %MON exf_tsnumber                 =                     8
(PID.TID 0000.0001) %MON exf_time_sec                 =   1.9200000000000E+03
(PID.TID 0000.0001) %MON exf_ustress_max              =   8.4413651417719E-01
(PID.TID 0000.0001) %MON exf_ustress_min              =  -4.0795998472469E-01
(PID.TID 0000.0001) %MON exf_ustress_mean             =   6.3197801478664E-02
(PID.TID 0000.0001) %MON exf_ustress_sd               =   1.5485863842720E-01
(PID.TID 0000.0001) %MON exf_ustress_del2             =   3.7973788022658E-07
(PID.TID 0000.0001) %MON exf_vstress_max              =   3.9076882549033E-01
(PID.TID 0000.0001) %MON exf_vstress_min              =  -5.6287956662484E-01
(PID.TID 0000.0001) %MON exf_vstress_mean             =   1.0767235421257E-02
(PID.TID 0000.0001) %MON exf_vstress_sd               =   1.0139723361335E-01
(PID.TID 0000.0001) %MON exf_vstress_del2             =   2.6768523434127E-07
(PID.TID 0000.0001) %MON exf_hflux_max                =   1.1601031218055E+03
(PID.TID 0000.0001) %MON exf_hflux_min                =  -2.8616119079394E+02
(PID.TID 0000.0001) %MON exf_hflux_mean               =   2.3953681102791E+02
(PID.TID 0000.0001) %MON exf_hflux_sd                 =   1.4022848289281E+02
(PID.TID 0000.0001) %MON exf_hflux_del2               =   6.0575800356912E-02
(PID.TID 0000.0001) %MON exf_sflux_max                =   2.5587102689055E-07
(PID.TID 0000.0001) %MON exf_sflux_min                =  -1.7183932778073E-06
(PID.TID 0000.0001) %MON exf_sflux_mean               =   1.7315369899773E-08
(PID.TID 0000.0001) %MON exf_sflux_sd                 =   1.3420514199731E-07
(PID.TID 0000.0001) %MON exf_sflux_del2               =   2.3598824766558E-11
(PID.TID 0000.0001) %MON exf_uwind_max                =   1.9626473686255E+01
(PID.TID 0000.0001) %MON exf_uwind_min                =  -1.4899752401394E+01
(PID.TID 0000.0001) %MON exf_uwind_mean               =   2.4772690559868E+00
(PID.TID 0000.0001) %MON exf_uwind_sd                 =   6.6666606058003E+00
(PID.TID 0000.0001) %MON exf_uwind_del2               =   1.5418644488696E-03
(PID.TID 0000.0001) %MON exf_vwind_max                =   1.4392482516061E+01
(PID.TID 0000.0001) %MON exf_vwind_min                =  -1.2775840657820E+01
(PID.TID 0000.0001) %MON exf_vwind_mean               =   8.5865463925611E-01
(PID.TID 0000.0001) %MON exf_vwind_sd                 =   5.1769839638644E+00
(PID.TID 0000.0001) %MON exf_vwind_del2               =   1.1513744457298E-03
(PID.TID 0000.0001) %MON exf_wspeed_max               =   2.0301165497037E+01
(PID.TID 0000.0001) %MON exf_wspeed_min               =   3.1573672003944E-03
(PID.TID 0000.0001) %MON exf_wspeed_mean              =   7.7114979692781E+00
(PID.TID 0000.0001) %MON exf_wspeed_sd                =   4.3188511701753E+00
(PID.TID 0000.0001) %MON exf_wspeed_del2              =   1.9241384281397E-03
(PID.TID 0000.0001) %MON exf_atemp_max                =   2.9816024585792E+02
(PID.TID 0000.0001) %MON exf_atemp_min                =   2.7434694900651E+02
(PID.TID 0000.0001) %MON exf_atemp_mean               =   2.9067717714392E+02
(PID.TID 0000.0001) %MON exf_atemp_sd                 =   3.9439908504318E+00
(PID.TID 0000.0001) %MON exf_atemp_del2               =   3.7818963517523E-03
(PID.TID 0000.0001) %MON exf_aqh_max                  =   1.6766585126340E-02
(PID.TID 0000.0001) %MON exf_aqh_min                  =   2.7217053503686E-03
(PID.TID 0000.0001) %MON exf_aqh_mean                 =   9.4192672790308E-03
(PID.TID 0000.0001) %MON exf_aqh_sd                   =   2.8735677177259E-03
(PID.TID 0000.0001) %MON exf_aqh_del2                 =   2.0692846766406E-06
(PID.TID 0000.0001) %MON exf_lwflux_max               =   1.5286015191438E+02
(PID.TID 0000.0001) %MON exf_lwflux_min               =  -6.8273893923448E+00
(PID.TID 0000.0001) %MON exf_lwflux_mean              =   6.5420393336609E+01
(PID.TID 0000.0001) %MON exf_lwflux_sd                =   2.6803559353889E+01
(PID.TID 0000.0001) %MON exf_lwflux_del2              =   1.5079239238892E-02
(PID.TID 0000.0001) %MON exf_evap_max                 =   2.7968629968553E-07
(PID.TID 0000.0001) %MON exf_evap_min                 =  -9.5551738134992E-08
(PID.TID 0000.0001) %MON exf_evap_mean                =   5.9261292518964E-08
(PID.TID 0000.0001) %MON exf_evap_sd                  =   4.2032533784030E-08
(PID.TID 0000.0001) %MON exf_evap_del2                =   1.5827915256927E-11
(PID.TID 0000.0001) %MON exf_precip_max               =   1.8946560964359E-06
(PID.TID 0000.0001) %MON exf_precip_min               =   0.0000000000000E+00
(PID.TID 0000.0001) %MON exf_precip_mean              =   4.0357443213972E-08
(PID.TID 0000.0001) %MON exf_precip_sd                =   1.3917898192904E-07
(PID.TID 0000.0001) %MON exf_precip_del2              =   2.5614224134593E-11
(PID.TID 0000.0001) %MON exf_swflux_max               =   0.0000000000000E+00
(PID.TID 0000.0001) %MON exf_swflux_min               =   0.0000000000000E+00
(PID.TID 0000.0001) %MON exf_swflux_mean              =   0.0000000000000E+00
(PID.TID 0000.0001) %MON exf_swflux_sd                =   0.0000000000000E+00
(PID.TID 0000.0001) %MON exf_swflux_del2              =   0.0000000000000E+00
(PID.TID 0000.0001) %MON exf_swdown_max               =   0.0000000000000E+00
(PID.TID 0000.0001) %MON exf_swdown_min               =   0.0000000000000E+00
(PID.TID 0000.0001) %MON exf_swdown_mean              =   0.0000000000000E+00
(PID.TID 0000.0001) %MON exf_swdown_sd                =   0.0000000000000E+00
(PID.TID 0000.0001) %MON exf_swdown_del2              =   0.0000000000000E+00
(PID.TID 0000.0001) %MON exf_lwdown_max               =   4.1825042980031E+02
(PID.TID 0000.0001) %MON exf_lwdown_min               =   2.2314382656222E+02
(PID.TID 0000.0001) %MON exf_lwdown_mean              =   3.4962240595456E+02
(PID.TID 0000.0001) %MON exf_lwdown_sd                =   3.1990071459670E+01
(PID.TID 0000.0001) %MON exf_lwdown_del2              =   7.4869013277246E-02
(PID.TID 0000.0001) %MON exf_apressure_max            =   1.0279973710513E+05
(PID.TID 0000.0001) %MON exf_apressure_min            =   1.0000974426508E+05
(PID.TID 0000.0001) %MON exf_apressure_mean           =   1.0216529723281E+05
(PID.TID 0000.0001) %MON exf_apressure_sd             =   4.9888638326062E+02
(PID.TID 0000.0001) %MON exf_apressure_del2           =   2.1828196713527E+01
(PID.TID 0000.0001) %MON exf_runoff_max               =   4.4374791284855E-08
(PID.TID 0000.0001) %MON exf_runoff_min               =   0.0000000000000E+00
(PID.TID 0000.0001) %MON exf_runoff_mean              =   1.5884794052193E-09
(PID.TID 0000.0001) %MON exf_runoff_sd                =   5.3901957917178E-09
(PID.TID 0000.0001) %MON exf_runoff_del2              =   1.1512509897985E-12
(PID.TID 0000.0001) // =======================================================
(PID.TID 0000.0001) // End MONITOR EXF statistics
(PID.TID 0000.0001) // =======================================================
 cg2d: Sum(rhs),rhsMax =   9.73951970979464E+02  7.08217971052085E-02
(PID.TID 0000.0001)      cg2d_init_res =   1.59934825820640E+00
(PID.TID 0000.0001)      cg2d_iters(min,last) =      -1     314
(PID.TID 0000.0001)      cg2d_last_res =   6.97466435872838E-12
(PID.TID 0000.0001) // =======================================================
(PID.TID 0000.0001) // Begin MONITOR dynamic field statistics
(PID.TID 0000.0001) // =======================================================
(PID.TID 0000.0001) %MON time_tsnumber                =                     9
(PID.TID 0000.0001) %MON time_secondsf                =   2.1600000000000E+03
(PID.TID 0000.0001) %MON dynstat_eta_max              =   9.9690389040957E-01
(PID.TID 0000.0001) %MON dynstat_eta_min              =  -1.3918147781366E+00
(PID.TID 0000.0001) %MON dynstat_eta_mean             =  -3.3121283138549E-02
(PID.TID 0000.0001) %MON dynstat_eta_sd               =   2.2873144083607E-01
(PID.TID 0000.0001) %MON dynstat_eta_del2             =   2.4590246578437E-06
(PID.TID 0000.0001) %MON dynstat_uvel_max             =   1.2958950996239E+00
(PID.TID 0000.0001) %MON dynstat_uvel_min             =  -7.0261169565027E-01
(PID.TID 0000.0001) %MON dynstat_uvel_mean            =   2.4299175201656E-03
(PID.TID 0000.0001) %MON dynstat_uvel_sd              =   5.2300778109335E-02
(PID.TID 0000.0001) %MON dynstat_uvel_del2            =   5.0240787701909E-07
(PID.TID 0000.0001) %MON dynstat_vvel_max             =   2.3665103372262E+00
(PID.TID 0000.0001) %MON dynstat_vvel_min             =  -9.1730480667706E-01
(PID.TID 0000.0001) %MON dynstat_vvel_mean            =  -3.6640127018665E-03
(PID.TID 0000.0001) %MON dynstat_vvel_sd              =   4.9003326278960E-02
(PID.TID 0000.0001) %MON dynstat_vvel_del2            =   4.6002352138411E-07
(PID.TID 0000.0001) %MON dynstat_wvel_max             =   3.5177652357664E-02
(PID.TID 0000.0001) %MON dynstat_wvel_min             =  -2.9013007979896E-02
(PID.TID 0000.0001) %MON dynstat_wvel_mean            =  -1.2678833044954E-05
(PID.TID 0000.0001) %MON dynstat_wvel_sd              =   5.9797067986140E-04
(PID.TID 0000.0001) %MON dynstat_wvel_del2            =   7.5495087149684E-08
(PID.TID 0000.0001) %MON dynstat_theta_max            =   2.6139010415255E+01
(PID.TID 0000.0001) %MON dynstat_theta_min            =   1.4688645849407E+00
(PID.TID 0000.0001) %MON dynstat_theta_mean           =   5.5098502929578E+00
(PID.TID 0000.0001) %MON dynstat_theta_sd             =   4.7733344091923E+00
(PID.TID 0000.0001) %MON dynstat_theta_del2           =   4.0228506651222E-06
(PID.TID 0000.0001) %MON dynstat_salt_max             =   3.9163812275002E+01
(PID.TID 0000.0001) %MON dynstat_salt_min             =   3.3096093775400E+01
(PID.TID 0000.0001) %MON dynstat_salt_mean            =   3.5173365959679E+01
(PID.TID 0000.0001) %MON dynstat_salt_sd              =   3.7891163374847E-01
(PID.TID 0000.0001) %MON dynstat_salt_del2            =   5.1744278760551E-07
(PID.TID 0000.0001) %MON dynstat_sst_max              =   2.6135815944241E+01
(PID.TID 0000.0001) %MON dynstat_sst_min              =   3.9638357553800E+00
(PID.TID 0000.0001) %MON dynstat_sst_mean             =   1.9638810043201E+01
(PID.TID 0000.0001) %MON dynstat_sst_sd               =   3.6390636171074E+00
(PID.TID 0000.0001) %MON dynstat_sst_del2             =   1.9129082012030E-05
(PID.TID 0000.0001) %MON dynstat_sss_max              =   3.7335986510337E+01
(PID.TID 0000.0001) %MON dynstat_sss_min              =   3.3096093775400E+01
(PID.TID 0000.0001) %MON dynstat_sss_mean             =   3.5868298336549E+01
(PID.TID 0000.0001) %MON dynstat_sss_sd               =   4.8719313816869E-01
(PID.TID 0000.0001) %MON dynstat_sss_del2             =   4.9379282235221E-06
(PID.TID 0000.0001) %MON forcing_qnet_max             =   1.1777906159749E+03
(PID.TID 0000.0001) %MON forcing_qnet_min             =  -2.9096244649228E+02
(PID.TID 0000.0001) %MON forcing_qnet_mean            =   2.4166868887767E+02
(PID.TID 0000.0001) %MON forcing_qnet_sd              =   1.4197851460436E+02
(PID.TID 0000.0001) %MON forcing_qnet_del2            =   1.6703715898150E-03
(PID.TID 0000.0001) %MON forcing_qsw_max              =   0.0000000000000E+00
(PID.TID 0000.0001) %MON forcing_qsw_min              =   0.0000000000000E+00
(PID.TID 0000.0001) %MON forcing_qsw_mean             =   0.0000000000000E+00
(PID.TID 0000.0001) %MON forcing_qsw_sd               =   0.0000000000000E+00
(PID.TID 0000.0001) %MON forcing_qsw_del2             =   0.0000000000000E+00
(PID.TID 0000.0001) %MON forcing_empmr_max            =   2.5587102689055E-04
(PID.TID 0000.0001) %MON forcing_empmr_min            =  -1.7183932778073E-03
(PID.TID 0000.0001) %MON forcing_empmr_mean           =   1.7315369899773E-05
(PID.TID 0000.0001) %MON forcing_empmr_sd             =   1.3420514199731E-04
(PID.TID 0000.0001) %MON forcing_empmr_del2           =   3.3580450341390E-09
(PID.TID 0000.0001) %MON forcing_fu_max               =   8.4341771506759E-01
(PID.TID 0000.0001) %MON forcing_fu_min               =  -4.0794005617622E-01
(PID.TID 0000.0001) %MON forcing_fu_mean              =   6.3257079955661E-02
(PID.TID 0000.0001) %MON forcing_fu_sd                =   1.5491860335934E-01
(PID.TID 0000.0001) %MON forcing_fu_del2              =   3.3871212986922E-07
(PID.TID 0000.0001) %MON forcing_fv_max               =   3.9070137444299E-01
(PID.TID 0000.0001) %MON forcing_fv_min               =  -5.6663098612388E-01
(PID.TID 0000.0001) %MON forcing_fv_mean              =   1.0748544158255E-02
(PID.TID 0000.0001) %MON forcing_fv_sd                =   1.0152888540503E-01
(PID.TID 0000.0001) %MON forcing_fv_del2              =   2.4706588633025E-07
(PID.TID 0000.0001) %MON trAdv_CFL_u_max              =   7.8622944323027E-02
(PID.TID 0000.0001) %MON trAdv_CFL_v_max              =   1.4952419084409E-01
(PID.TID 0000.0001) %MON trAdv_CFL_w_max              =   5.3014309284716E-01
(PID.TID 0000.0001) %MON advcfl_uvel_max              =   7.8622943252504E-02
(PID.TID 0000.0001) %MON advcfl_vvel_max              =   1.4956769660982E-01
(PID.TID 0000.0001) %MON advcfl_wvel_max              =   5.2603345646850E-01
(PID.TID 0000.0001) %MON advcfl_W_hf_max              =   5.3014309284716E-01
(PID.TID 0000.0001) %MON pe_b_mean                    =  -7.3861735613251E-04
(PID.TID 0000.0001) %MON ke_max                       =   2.5365868199243E+00
(PID.TID 0000.0001) %MON ke_mean                      =   2.5589923752753E-03
(PID.TID 0000.0001) %MON ke_vol                       =   4.5818637279723E+16
(PID.TID 0000.0001) %MON vort_r_min                   =  -5.1586052737547E-04
(PID.TID 0000.0001) %MON vort_r_max                   =   6.4290479136689E-04
(PID.TID 0000.0001) %MON vort_a_mean                  =   8.2147624682860E-05
(PID.TID 0000.0001) %MON vort_a_sd                    =   1.0138107015251E-05
(PID.TID 0000.0001) %MON vort_p_mean                  =   8.4848846044419E-05
(PID.TID 0000.0001) %MON vort_p_sd                    =   3.4972356943377E-05
(PID.TID 0000.0001) %MON surfExpan_theta_mean         =  -2.6845312427949E-04
(PID.TID 0000.0001) %MON surfExpan_salt_mean          =  -8.0972879856985E-04
(PID.TID 0000.0001) // =======================================================
(PID.TID 0000.0001) // End MONITOR dynamic field statistics
(PID.TID 0000.0001) // =======================================================
(PID.TID 0000.0001) // =======================================================
(PID.TID 0000.0001) // Begin OBCS MONITOR field statistics
(PID.TID 0000.0001) // =======================================================
(PID.TID 0000.0001) %MON obc_N_vVel_max               =   6.9494126870028E-01
(PID.TID 0000.0001) %MON obc_N_vVel_min               =  -3.2329244299176E-01
(PID.TID 0000.0001) %MON obc_N_vVel_mean              =   1.3557624938349E-02
(PID.TID 0000.0001) %MON obc_N_vVel_sd                =   6.4626123524563E-02
(PID.TID 0000.0001) %MON obc_N_vVel_Int               =   1.9407854610568E+08
(PID.TID 0000.0001) %MON obc_S_vVel_max               =   2.3665103372262E+00
(PID.TID 0000.0001) %MON obc_S_vVel_min               =  -2.6286729972578E-01
(PID.TID 0000.0001) %MON obc_S_vVel_mean              =  -2.1737948102404E-03
(PID.TID 0000.0001) %MON obc_S_vVel_sd                =   3.6128657339757E-02
(PID.TID 0000.0001) %MON obc_S_vVel_Int               =  -6.6176617317670E+07
(PID.TID 0000.0001) %MON obc_N_theta_max              =   1.6390068125480E+01
(PID.TID 0000.0001) %MON obc_N_theta_min              =   1.8895911685740E+00
(PID.TID 0000.0001) %MON obc_N_theta_mean             =   5.1589140445384E+00
(PID.TID 0000.0001) %MON obc_N_theta_sd               =   3.4826503119707E+00
(PID.TID 0000.0001) %MON obc_S_theta_max              =   2.5544016569792E+01
(PID.TID 0000.0001) %MON obc_S_theta_min              =   1.4632992074720E+00
(PID.TID 0000.0001) %MON obc_S_theta_mean             =   5.4595505349901E+00
(PID.TID 0000.0001) %MON obc_S_theta_sd               =   5.3559021947514E+00
(PID.TID 0000.0001) %MON obc_N_salt_max               =   3.5910863972689E+01
(PID.TID 0000.0001) %MON obc_N_salt_min               =   3.3295063593745E+01
(PID.TID 0000.0001) %MON obc_N_salt_mean              =   3.5114561652470E+01
(PID.TID 0000.0001) %MON obc_N_salt_sd                =   3.0984825550812E-01
(PID.TID 0000.0001) %MON obc_S_salt_max               =   3.7318284671165E+01
(PID.TID 0000.0001) %MON obc_S_salt_min               =   3.4844694783800E+01
(PID.TID 0000.0001) %MON obc_S_salt_mean              =   3.5168372291584E+01
(PID.TID 0000.0001) %MON obc_S_salt_sd                =   4.5716794818967E-01
(PID.TID 0000.0001) // =======================================================
(PID.TID 0000.0001) // End OBCS MONITOR field statistics
(PID.TID 0000.0001) // =======================================================
(PID.TID 0000.0001) // =======================================================
(PID.TID 0000.0001) // Begin MONITOR EXF statistics
(PID.TID 0000.0001) // =======================================================
(PID.TID 0000.0001) %MON exf_tsnumber                 =                     9
(PID.TID 0000.0001) %MON exf_time_sec                 =   2.1600000000000E+03
(PID.TID 0000.0001) %MON exf_ustress_max              =   8.5492075487666E-01
(PID.TID 0000.0001) %MON exf_ustress_min              =  -4.0539564947889E-01
(PID.TID 0000.0001) %MON exf_ustress_mean             =   6.3320660127677E-02
(PID.TID 0000.0001) %MON exf_ustress_sd               =   1.5489914896830E-01
(PID.TID 0000.0001) %MON exf_ustress_del2             =   3.8401972824252E-07
(PID.TID 0000.0001) %MON exf_vstress_max              =   3.9217579187030E-01
(PID.TID 0000.0001) %MON exf_vstress_min              =  -5.6363809466879E-01
(PID.TID 0000.0001) %MON exf_vstress_mean             =   1.0819685136937E-02
(PID.TID 0000.0001) %MON exf_vstress_sd               =   1.0145384360296E-01
(PID.TID 0000.0001) %MON exf_vstress_del2             =   2.7372022581685E-07
(PID.TID 0000.0001) %MON exf_hflux_max                =   1.1665063406436E+03
(PID.TID 0000.0001) %MON exf_hflux_min                =  -2.8860892584059E+02
(PID.TID 0000.0001) %MON exf_hflux_mean               =   2.3952338801685E+02
(PID.TID 0000.0001) %MON exf_hflux_sd                 =   1.4031694568683E+02
(PID.TID 0000.0001) %MON exf_hflux_del2               =   6.0580062925092E-02
(PID.TID 0000.0001) %MON exf_sflux_max                =   2.5654316514035E-07
(PID.TID 0000.0001) %MON exf_sflux_min                =  -1.7372089334629E-06
(PID.TID 0000.0001) %MON exf_sflux_mean               =   1.7066311409794E-08
(PID.TID 0000.0001) %MON exf_sflux_sd                 =   1.3329246118571E-07
(PID.TID 0000.0001) %MON exf_sflux_del2               =   2.3552503909670E-11
(PID.TID 0000.0001) %MON exf_uwind_max                =   1.9731660713684E+01
(PID.TID 0000.0001) %MON exf_uwind_min                =  -1.4870803417609E+01
(PID.TID 0000.0001) %MON exf_uwind_mean               =   2.4791237199155E+00
(PID.TID 0000.0001) %MON exf_uwind_sd                 =   6.6661693224270E+00
(PID.TID 0000.0001) %MON exf_uwind_del2               =   1.5414928560601E-03
(PID.TID 0000.0001) %MON exf_vwind_max                =   1.4422057790176E+01
(PID.TID 0000.0001) %MON exf_vwind_min                =  -1.2781474867211E+01
(PID.TID 0000.0001) %MON exf_vwind_mean               =   8.6038916154511E-01
(PID.TID 0000.0001) %MON exf_vwind_sd                 =   5.1759351008933E+00
(PID.TID 0000.0001) %MON exf_vwind_del2               =   1.1515010697944E-03
(PID.TID 0000.0001) %MON exf_wspeed_max               =   2.0283845178921E+01
(PID.TID 0000.0001) %MON exf_wspeed_min               =   1.2416017945541E-02
(PID.TID 0000.0001) %MON exf_wspeed_mean              =   7.7102093873918E+00
(PID.TID 0000.0001) %MON exf_wspeed_sd                =   4.3205454209454E+00
(PID.TID 0000.0001) %MON exf_wspeed_del2              =   1.9239138470953E-03
(PID.TID 0000.0001) %MON exf_atemp_max                =   2.9815804856951E+02
(PID.TID 0000.0001) %MON exf_atemp_min                =   2.7432134779787E+02
(PID.TID 0000.0001) %MON exf_atemp_mean               =   2.9067405593773E+02
(PID.TID 0000.0001) %MON exf_atemp_sd                 =   3.9444520568666E+00
(PID.TID 0000.0001) %MON exf_atemp_del2               =   3.7812819725986E-03
(PID.TID 0000.0001) %MON exf_aqh_max                  =   1.6759598825467E-02
(PID.TID 0000.0001) %MON exf_aqh_min                  =   2.7194106526046E-03
(PID.TID 0000.0001) %MON exf_aqh_mean                 =   9.4180791262167E-03
(PID.TID 0000.0001) %MON exf_aqh_sd                   =   2.8742704570836E-03
(PID.TID 0000.0001) %MON exf_aqh_del2                 =   2.0690349380460E-06
(PID.TID 0000.0001) %MON exf_lwflux_max               =   1.5313199167176E+02
(PID.TID 0000.0001) %MON exf_lwflux_min               =  -4.6269337435912E+00
(PID.TID 0000.0001) %MON exf_lwflux_mean              =   6.5401908086090E+01
(PID.TID 0000.0001) %MON exf_lwflux_sd                =   2.6703218648987E+01
(PID.TID 0000.0001) %MON exf_lwflux_del2              =   1.5069112776049E-02
(PID.TID 0000.0001) %MON exf_evap_max                 =   2.8140595207779E-07
(PID.TID 0000.0001) %MON exf_evap_min                 =  -9.6361295611957E-08
(PID.TID 0000.0001) %MON exf_evap_mean                =   5.9255369301213E-08
(PID.TID 0000.0001) %MON exf_evap_sd                  =   4.2034758796402E-08
(PID.TID 0000.0001) %MON exf_evap_del2                =   1.5826109288457E-11
(PID.TID 0000.0001) %MON exf_precip_max               =   1.9141066233964E-06
(PID.TID 0000.0001) %MON exf_precip_min               =   0.0000000000000E+00
(PID.TID 0000.0001) %MON exf_precip_mean              =   4.0600578486200E-08
(PID.TID 0000.0001) %MON exf_precip_sd                =   1.3843006107081E-07
(PID.TID 0000.0001) %MON exf_precip_del2              =   2.5685508512888E-11
(PID.TID 0000.0001) %MON exf_swflux_max               =   0.0000000000000E+00
(PID.TID 0000.0001) %MON exf_swflux_min               =   0.0000000000000E+00
(PID.TID 0000.0001) %MON exf_swflux_mean              =   0.0000000000000E+00
(PID.TID 0000.0001) %MON exf_swflux_sd                =   0.0000000000000E+00
(PID.TID 0000.0001) %MON exf_swflux_del2              =   0.0000000000000E+00
(PID.TID 0000.0001) %MON exf_swdown_max               =   0.0000000000000E+00
(PID.TID 0000.0001) %MON exf_swdown_min               =   0.0000000000000E+00
(PID.TID 0000.0001) %MON exf_swdown_mean              =   0.0000000000000E+00
(PID.TID 0000.0001) %MON exf_swdown_sd                =   0.0000000000000E+00
(PID.TID 0000.0001) %MON exf_swdown_del2              =   0.0000000000000E+00
(PID.TID 0000.0001) %MON exf_lwdown_max               =   4.1828155240958E+02
(PID.TID 0000.0001) %MON exf_lwdown_min               =   2.2358340796167E+02
(PID.TID 0000.0001) %MON exf_lwdown_mean              =   3.4963689710756E+02
(PID.TID 0000.0001) %MON exf_lwdown_sd                =   3.1864235004662E+01
(PID.TID 0000.0001) %MON exf_lwdown_del2              =   7.4866606628227E-02
(PID.TID 0000.0001) %MON exf_apressure_max            =   1.0280269188821E+05
(PID.TID 0000.0001) %MON exf_apressure_min            =   1.0001241170265E+05
(PID.TID 0000.0001) %MON exf_apressure_mean           =   1.0216607453936E+05
(PID.TID 0000.0001) %MON exf_apressure_sd             =   4.9880298184990E+02
(PID.TID 0000.0001) %MON exf_apressure_del2           =   2.1828365722180E+01
(PID.TID 0000.0001) %MON exf_runoff_max               =   4.4374791284855E-08
(PID.TID 0000.0001) %MON exf_runoff_min               =   0.0000000000000E+00
(PID.TID 0000.0001) %MON exf_runoff_mean              =   1.5884794052193E-09
(PID.TID 0000.0001) %MON exf_runoff_sd                =   5.3901957917178E-09
(PID.TID 0000.0001) %MON exf_runoff_del2              =   1.1512509897985E-12
(PID.TID 0000.0001) // =======================================================
(PID.TID 0000.0001) // End MONITOR EXF statistics
(PID.TID 0000.0001) // =======================================================
 cg2d: Sum(rhs),rhsMax =   1.14948318187700E+03  7.52808644877664E-02
(PID.TID 0000.0001)      cg2d_init_res =   1.65660587055555E+00
(PID.TID 0000.0001)      cg2d_iters(min,last) =      -1     314
(PID.TID 0000.0001)      cg2d_last_res =   6.55337819679808E-12
(PID.TID 0000.0001) // =======================================================
(PID.TID 0000.0001) // Begin MONITOR dynamic field statistics
(PID.TID 0000.0001) // =======================================================
(PID.TID 0000.0001) %MON time_tsnumber                =                    10
(PID.TID 0000.0001) %MON time_secondsf                =   2.4000000000000E+03
(PID.TID 0000.0001) %MON dynstat_eta_max              =   9.9398926682010E-01
(PID.TID 0000.0001) %MON dynstat_eta_min              =  -1.3983167244261E+00
(PID.TID 0000.0001) %MON dynstat_eta_mean             =  -3.9090590772829E-02
(PID.TID 0000.0001) %MON dynstat_eta_sd               =   2.4014711213240E-01
(PID.TID 0000.0001) %MON dynstat_eta_del2             =   2.4103768886308E-06
(PID.TID 0000.0001) %MON dynstat_uvel_max             =   1.2914065903561E+00
(PID.TID 0000.0001) %MON dynstat_uvel_min             =  -7.0095401222616E-01
(PID.TID 0000.0001) %MON dynstat_uvel_mean            =   2.1931593995567E-03
(PID.TID 0000.0001) %MON dynstat_uvel_sd              =   5.2278683301427E-02
(PID.TID 0000.0001) %MON dynstat_uvel_del2            =   5.1226274662097E-07
(PID.TID 0000.0001) %MON dynstat_vvel_max             =   2.4281312600680E+00
(PID.TID 0000.0001) %MON dynstat_vvel_min             =  -9.1850226090926E-01
(PID.TID 0000.0001) %MON dynstat_vvel_mean            =  -3.9343900163993E-03
(PID.TID 0000.0001) %MON dynstat_vvel_sd              =   4.9130753474178E-02
(PID.TID 0000.0001) %MON dynstat_vvel_del2            =   4.6866687025901E-07
(PID.TID 0000.0001) %MON dynstat_wvel_max             =   3.4683094529294E-02
(PID.TID 0000.0001) %MON dynstat_wvel_min             =  -3.0236391845644E-02
(PID.TID 0000.0001) %MON dynstat_wvel_mean            =  -1.3822697757393E-05
(PID.TID 0000.0001) %MON dynstat_wvel_sd              =   6.0192609837291E-04
(PID.TID 0000.0001) %MON dynstat_wvel_del2            =   7.5315185639224E-08
(PID.TID 0000.0001) %MON dynstat_theta_max            =   2.6140703512039E+01
(PID.TID 0000.0001) %MON dynstat_theta_min            =   1.4688647390169E+00
(PID.TID 0000.0001) %MON dynstat_theta_mean           =   5.5098563733760E+00
(PID.TID 0000.0001) %MON dynstat_theta_sd             =   4.7733257556332E+00
(PID.TID 0000.0001) %MON dynstat_theta_del2           =   4.0261140966746E-06
(PID.TID 0000.0001) %MON dynstat_salt_max             =   3.9160113547384E+01
(PID.TID 0000.0001) %MON dynstat_salt_min             =   3.3097060914613E+01
(PID.TID 0000.0001) %MON dynstat_salt_mean            =   3.5173365897043E+01
(PID.TID 0000.0001) %MON dynstat_salt_sd              =   3.7891231899386E-01
(PID.TID 0000.0001) %MON dynstat_salt_del2            =   5.2075936319997E-07
(PID.TID 0000.0001) %MON dynstat_sst_max              =   2.6137284127556E+01
(PID.TID 0000.0001) %MON dynstat_sst_min              =   3.9496744449327E+00
(PID.TID 0000.0001) %MON dynstat_sst_mean             =   1.9638050932293E+01
(PID.TID 0000.0001) %MON dynstat_sst_sd               =   3.6391034683175E+00
(PID.TID 0000.0001) %MON dynstat_sst_del2             =   1.9151886012561E-05
(PID.TID 0000.0001) %MON dynstat_sss_max              =   3.7336066801012E+01
(PID.TID 0000.0001) %MON dynstat_sss_min              =   3.3097060914613E+01
(PID.TID 0000.0001) %MON dynstat_sss_mean             =   3.5868331552280E+01
(PID.TID 0000.0001) %MON dynstat_sss_sd               =   4.8719207275965E-01
(PID.TID 0000.0001) %MON dynstat_sss_del2             =   4.9307523360457E-06
(PID.TID 0000.0001) %MON forcing_qnet_max             =   1.1844037906657E+03
(PID.TID 0000.0001) %MON forcing_qnet_min             =  -2.9341779420958E+02
(PID.TID 0000.0001) %MON forcing_qnet_mean            =   2.4163819772140E+02
(PID.TID 0000.0001) %MON forcing_qnet_sd              =   1.4204491453451E+02
(PID.TID 0000.0001) %MON forcing_qnet_del2            =   1.6628457350952E-03
(PID.TID 0000.0001) %MON forcing_qsw_max              =   0.0000000000000E+00
(PID.TID 0000.0001) %MON forcing_qsw_min              =   0.0000000000000E+00
(PID.TID 0000.0001) %MON forcing_qsw_mean             =   0.0000000000000E+00
(PID.TID 0000.0001) %MON forcing_qsw_sd               =   0.0000000000000E+00
(PID.TID 0000.0001) %MON forcing_qsw_del2             =   0.0000000000000E+00
(PID.TID 0000.0001) %MON forcing_empmr_max            =   2.5654316514035E-04
(PID.TID 0000.0001) %MON forcing_empmr_min            =  -1.7372089334629E-03
(PID.TID 0000.0001) %MON forcing_empmr_mean           =   1.7066311409794E-05
(PID.TID 0000.0001) %MON forcing_empmr_sd             =   1.3329246118571E-04
(PID.TID 0000.0001) %MON forcing_empmr_del2           =   3.1667211625553E-09
(PID.TID 0000.0001) %MON forcing_fu_max               =   8.5458065453944E-01
(PID.TID 0000.0001) %MON forcing_fu_min               =  -4.0530574581720E-01
(PID.TID 0000.0001) %MON forcing_fu_mean              =   6.3380425846793E-02
(PID.TID 0000.0001) %MON forcing_fu_sd                =   1.5495927520471E-01
(PID.TID 0000.0001) %MON forcing_fu_del2              =   3.4376237735813E-07
(PID.TID 0000.0001) %MON forcing_fv_max               =   3.9198874847839E-01
(PID.TID 0000.0001) %MON forcing_fv_min               =  -5.6758312209088E-01
(PID.TID 0000.0001) %MON forcing_fv_mean              =   1.0801335708560E-02
(PID.TID 0000.0001) %MON forcing_fv_sd                =   1.0158569087749E-01
(PID.TID 0000.0001) %MON forcing_fv_del2              =   2.5309643649137E-07
(PID.TID 0000.0001) %MON trAdv_CFL_u_max              =   7.8350623041495E-02
(PID.TID 0000.0001) %MON trAdv_CFL_v_max              =   1.5341761082289E-01
(PID.TID 0000.0001) %MON trAdv_CFL_w_max              =   5.0959153013970E-01
(PID.TID 0000.0001) %MON advcfl_uvel_max              =   7.8350621974680E-02
(PID.TID 0000.0001) %MON advcfl_vvel_max              =   1.5346224942349E-01
(PID.TID 0000.0001) %MON advcfl_wvel_max              =   5.0564120820063E-01
(PID.TID 0000.0001) %MON advcfl_W_hf_max              =   5.0959153013970E-01
(PID.TID 0000.0001) %MON pe_b_mean                    =  -8.7686831903645E-04
(PID.TID 0000.0001) %MON ke_max                       =   2.6677522981089E+00
(PID.TID 0000.0001) %MON ke_mean                      =   2.5645380360420E-03
(PID.TID 0000.0001) %MON ke_vol                       =   4.5818637279723E+16
(PID.TID 0000.0001) %MON vort_r_min                   =  -5.1705856825105E-04
(PID.TID 0000.0001) %MON vort_r_max                   =   6.8315131080694E-04
(PID.TID 0000.0001) %MON vort_a_mean                  =   8.2147623875451E-05
(PID.TID 0000.0001) %MON vort_a_sd                    =   1.0141646682182E-05
(PID.TID 0000.0001) %MON vort_p_mean                  =   8.4848845210460E-05
(PID.TID 0000.0001) %MON vort_p_sd                    =   3.4974129643448E-05
(PID.TID 0000.0001) %MON surfExpan_theta_mean         =  -3.1275798433145E-04
(PID.TID 0000.0001) %MON surfExpan_salt_mean          =  -8.7740636081599E-04
(PID.TID 0000.0001) // =======================================================
(PID.TID 0000.0001) // End MONITOR dynamic field statistics
(PID.TID 0000.0001) // =======================================================
(PID.TID 0000.0001) // =======================================================
(PID.TID 0000.0001) // Begin OBCS MONITOR field statistics
(PID.TID 0000.0001) // =======================================================
(PID.TID 0000.0001) %MON obc_N_vVel_max               =   6.9478873976617E-01
(PID.TID 0000.0001) %MON obc_N_vVel_min               =  -3.2356856874258E-01
(PID.TID 0000.0001) %MON obc_N_vVel_mean              =   1.3535370834126E-02
(PID.TID 0000.0001) %MON obc_N_vVel_sd                =   6.4607763335849E-02
(PID.TID 0000.0001) %MON obc_N_vVel_Int               =   1.9375997672409E+08
(PID.TID 0000.0001) %MON obc_S_vVel_max               =   2.4281312600680E+00
(PID.TID 0000.0001) %MON obc_S_vVel_min               =  -2.6295159281772E-01
(PID.TID 0000.0001) %MON obc_S_vVel_mean              =  -2.8686933837102E-03
(PID.TID 0000.0001) %MON obc_S_vVel_sd                =   3.6192046919410E-02
(PID.TID 0000.0001) %MON obc_S_vVel_Int               =  -8.7331344872667E+07
(PID.TID 0000.0001) %MON obc_N_theta_max              =   1.6389980023293E+01
(PID.TID 0000.0001) %MON obc_N_theta_min              =   1.8895912176394E+00
(PID.TID 0000.0001) %MON obc_N_theta_mean             =   5.1589066603884E+00
(PID.TID 0000.0001) %MON obc_N_theta_sd               =   3.4826410211044E+00
(PID.TID 0000.0001) %MON obc_S_theta_max              =   2.5543913821012E+01
(PID.TID 0000.0001) %MON obc_S_theta_min              =   1.4632996037592E+00
(PID.TID 0000.0001) %MON obc_S_theta_mean             =   5.4595497299655E+00
(PID.TID 0000.0001) %MON obc_S_theta_sd               =   5.3558983237118E+00
(PID.TID 0000.0001) %MON obc_N_salt_max               =   3.5910863564326E+01
(PID.TID 0000.0001) %MON obc_N_salt_min               =   3.3295069096378E+01
(PID.TID 0000.0001) %MON obc_N_salt_mean              =   3.5114561356483E+01
(PID.TID 0000.0001) %MON obc_N_salt_sd                =   3.0984813633906E-01
(PID.TID 0000.0001) %MON obc_S_salt_max               =   3.7318277786781E+01
(PID.TID 0000.0001) %MON obc_S_salt_min               =   3.4844694836021E+01
(PID.TID 0000.0001) %MON obc_S_salt_mean              =   3.5168372219668E+01
(PID.TID 0000.0001) %MON obc_S_salt_sd                =   4.5716759715680E-01
(PID.TID 0000.0001) // =======================================================
(PID.TID 0000.0001) // End OBCS MONITOR field statistics
(PID.TID 0000.0001) // =======================================================
(PID.TID 0000.0001) // =======================================================
(PID.TID 0000.0001) // Begin MONITOR EXF statistics
(PID.TID 0000.0001) // =======================================================
(PID.TID 0000.0001) %MON exf_tsnumber                 =                    10
(PID.TID 0000.0001) %MON exf_time_sec                 =   2.4000000000000E+03
(PID.TID 0000.0001) %MON exf_ustress_max              =   8.6626698632825E-01
(PID.TID 0000.0001) %MON exf_ustress_min              =  -4.0287463750304E-01
(PID.TID 0000.0001) %MON exf_ustress_mean             =   6.3467741901303E-02
(PID.TID 0000.0001) %MON exf_ustress_sd               =   1.5501189282606E-01
(PID.TID 0000.0001) %MON exf_ustress_del2             =   3.9118479409960E-07
(PID.TID 0000.0001) %MON exf_vstress_max              =   3.9435409131275E-01
(PID.TID 0000.0001) %MON exf_vstress_min              =  -5.6463769994467E-01
(PID.TID 0000.0001) %MON exf_vstress_mean             =   1.0878072303055E-02
(PID.TID 0000.0001) %MON exf_vstress_sd               =   1.0157529592818E-01
(PID.TID 0000.0001) %MON exf_vstress_del2             =   2.8283448669609E-07
(PID.TID 0000.0001) %MON exf_hflux_max                =   1.1731330987791E+03
(PID.TID 0000.0001) %MON exf_hflux_min                =  -2.9120322064397E+02
(PID.TID 0000.0001) %MON exf_hflux_mean               =   2.3953333814609E+02
(PID.TID 0000.0001) %MON exf_hflux_sd                 =   1.4044449716076E+02
(PID.TID 0000.0001) %MON exf_hflux_del2               =   6.0592697758596E-02
(PID.TID 0000.0001) %MON exf_sflux_max                =   2.5724501230170E-07
(PID.TID 0000.0001) %MON exf_sflux_min                =  -1.7560211076227E-06
(PID.TID 0000.0001) %MON exf_sflux_mean               =   1.6824830063374E-08
(PID.TID 0000.0001) %MON exf_sflux_sd                 =   1.3268214721639E-07
(PID.TID 0000.0001) %MON exf_sflux_del2               =   2.3589637808309E-11
(PID.TID 0000.0001) %MON exf_uwind_max                =   1.9838058091437E+01
(PID.TID 0000.0001) %MON exf_uwind_min                =  -1.4843134742364E+01
(PID.TID 0000.0001) %MON exf_uwind_mean               =   2.4810108004417E+00
(PID.TID 0000.0001) %MON exf_uwind_sd                 =   6.6664048956805E+00
(PID.TID 0000.0001) %MON exf_uwind_del2               =   1.5412818136686E-03
(PID.TID 0000.0001) %MON exf_vwind_max                =   1.4466451815996E+01
(PID.TID 0000.0001) %MON exf_vwind_min                =  -1.2790626212172E+01
(PID.TID 0000.0001) %MON exf_vwind_mean               =   8.6210699227901E-01
(PID.TID 0000.0001) %MON exf_vwind_sd                 =   5.1764058860784E+00
(PID.TID 0000.0001) %MON exf_vwind_del2               =   1.1519551476007E-03
(PID.TID 0000.0001) %MON exf_wspeed_max               =   2.0268750883091E+01
(PID.TID 0000.0001) %MON exf_wspeed_min               =   7.7691249962609E-03
(PID.TID 0000.0001) %MON exf_wspeed_mean              =   7.7100599560410E+00
(PID.TID 0000.0001) %MON exf_wspeed_sd                =   4.3231644269998E+00
(PID.TID 0000.0001) %MON exf_wspeed_del2              =   1.9240116971469E-03
(PID.TID 0000.0001) %MON exf_atemp_max                =   2.9815585128109E+02
(PID.TID 0000.0001) %MON exf_atemp_min                =   2.7429574658923E+02
(PID.TID 0000.0001) %MON exf_atemp_mean               =   2.9067093473153E+02
(PID.TID 0000.0001) %MON exf_atemp_sd                 =   3.9450556500922E+00
(PID.TID 0000.0001) %MON exf_atemp_del2               =   3.7806737999451E-03
(PID.TID 0000.0001) %MON exf_aqh_max                  =   1.6752612524593E-02
(PID.TID 0000.0001) %MON exf_aqh_min                  =   2.7171159548406E-03
(PID.TID 0000.0001) %MON exf_aqh_mean                 =   9.4168909734026E-03
(PID.TID 0000.0001) %MON exf_aqh_sd                   =   2.8751456814907E-03
(PID.TID 0000.0001) %MON exf_aqh_del2                 =   2.0687961465795E-06
(PID.TID 0000.0001) %MON exf_lwflux_max               =   1.5340376560066E+02
(PID.TID 0000.0001) %MON exf_lwflux_min               =  -3.1012593496409E+00
(PID.TID 0000.0001) %MON exf_lwflux_mean              =   6.5383666095353E+01
(PID.TID 0000.0001) %MON exf_lwflux_sd                =   2.6621729893141E+01
(PID.TID 0000.0001) %MON exf_lwflux_del2              =   1.5060564304628E-02
(PID.TID 0000.0001) %MON exf_evap_max                 =   2.8325075447254E-07
(PID.TID 0000.0001) %MON exf_evap_min                 =  -9.7201013430702E-08
(PID.TID 0000.0001) %MON exf_evap_mean                =   5.9257023227020E-08
(PID.TID 0000.0001) %MON exf_evap_sd                  =   4.2048502813546E-08
(PID.TID 0000.0001) %MON exf_evap_del2                =   1.5826988915409E-11
(PID.TID 0000.0001) %MON exf_precip_max               =   1.9335571503569E-06
(PID.TID 0000.0001) %MON exf_precip_min               =   0.0000000000000E+00
(PID.TID 0000.0001) %MON exf_precip_mean              =   4.0843713758428E-08
(PID.TID 0000.0001) %MON exf_precip_sd                =   1.3798293944741E-07
(PID.TID 0000.0001) %MON exf_precip_del2              =   2.5836071900699E-11
(PID.TID 0000.0001) %MON exf_swflux_max               =   0.0000000000000E+00
(PID.TID 0000.0001) %MON exf_swflux_min               =   0.0000000000000E+00
(PID.TID 0000.0001) %MON exf_swflux_mean              =   0.0000000000000E+00
(PID.TID 0000.0001) %MON exf_swflux_sd                =   0.0000000000000E+00
(PID.TID 0000.0001) %MON exf_swflux_del2              =   0.0000000000000E+00
(PID.TID 0000.0001) %MON exf_swdown_max               =   0.0000000000000E+00
(PID.TID 0000.0001) %MON exf_swdown_min               =   0.0000000000000E+00
(PID.TID 0000.0001) %MON exf_swdown_mean              =   0.0000000000000E+00
(PID.TID 0000.0001) %MON exf_swdown_sd                =   0.0000000000000E+00
(PID.TID 0000.0001) %MON exf_swdown_del2              =   0.0000000000000E+00
(PID.TID 0000.0001) %MON exf_lwdown_max               =   4.1831267501885E+02
(PID.TID 0000.0001) %MON exf_lwdown_min               =   2.2402298936111E+02
(PID.TID 0000.0001) %MON exf_lwdown_mean              =   3.4965138826056E+02
(PID.TID 0000.0001) %MON exf_lwdown_sd                =   3.1755013557864E+01
(PID.TID 0000.0001) %MON exf_lwdown_del2              =   7.4864528269313E-02
(PID.TID 0000.0001) %MON exf_apressure_max            =   1.0280576881181E+05
(PID.TID 0000.0001) %MON exf_apressure_min            =   1.0001483343524E+05
(PID.TID 0000.0001) %MON exf_apressure_mean           =   1.0216685184592E+05
(PID.TID 0000.0001) %MON exf_apressure_sd             =   4.9875939305255E+02
(PID.TID 0000.0001) %MON exf_apressure_del2           =   2.1828534773646E+01
(PID.TID 0000.0001) %MON exf_runoff_max               =   4.4374791284855E-08
(PID.TID 0000.0001) %MON exf_runoff_min               =   0.0000000000000E+00
(PID.TID 0000.0001) %MON exf_runoff_mean              =   1.5884794052193E-09
(PID.TID 0000.0001) %MON exf_runoff_sd                =   5.3901957917178E-09
(PID.TID 0000.0001) %MON exf_runoff_del2              =   1.1512509897985E-12
(PID.TID 0000.0001) // =======================================================
(PID.TID 0000.0001) // End MONITOR EXF statistics
(PID.TID 0000.0001) // =======================================================
 cg2d: Sum(rhs),rhsMax =   1.33781218030143E+03  8.41517099428783E-02
(PID.TID 0000.0001)      cg2d_init_res =   1.62321646101176E+00
(PID.TID 0000.0001)      cg2d_iters(min,last) =      -1     313
(PID.TID 0000.0001)      cg2d_last_res =   6.56181408564421E-12
(PID.TID 0000.0001) // =======================================================
(PID.TID 0000.0001) // Begin MONITOR dynamic field statistics
(PID.TID 0000.0001) // =======================================================
(PID.TID 0000.0001) %MON time_tsnumber                =                    11
(PID.TID 0000.0001) %MON time_secondsf                =   2.6400000000000E+03
(PID.TID 0000.0001) %MON dynstat_eta_max              =   9.5059194600538E-01
(PID.TID 0000.0001) %MON dynstat_eta_min              =  -1.2800324144899E+00
(PID.TID 0000.0001) %MON dynstat_eta_mean             =  -4.5495114061325E-02
(PID.TID 0000.0001) %MON dynstat_eta_sd               =   2.5067939255832E-01
(PID.TID 0000.0001) %MON dynstat_eta_del2             =   2.3566214326062E-06
(PID.TID 0000.0001) %MON dynstat_uvel_max             =   1.2857270485842E+00
(PID.TID 0000.0001) %MON dynstat_uvel_min             =  -7.0064207489165E-01
(PID.TID 0000.0001) %MON dynstat_uvel_mean            =   1.9584303499010E-03
(PID.TID 0000.0001) %MON dynstat_uvel_sd              =   5.2267941898777E-02
(PID.TID 0000.0001) %MON dynstat_uvel_del2            =   5.2127378731425E-07
(PID.TID 0000.0001) %MON dynstat_vvel_max             =   2.4892628007229E+00
(PID.TID 0000.0001) %MON dynstat_vvel_min             =  -9.1892077128783E-01
(PID.TID 0000.0001) %MON dynstat_vvel_mean            =  -4.1864126201220E-03
(PID.TID 0000.0001) %MON dynstat_vvel_sd              =   4.9237120514343E-02
(PID.TID 0000.0001) %MON dynstat_vvel_del2            =   4.7646336618692E-07
(PID.TID 0000.0001) %MON dynstat_wvel_max             =   3.4220469070792E-02
(PID.TID 0000.0001) %MON dynstat_wvel_min             =  -3.1210497474500E-02
(PID.TID 0000.0001) %MON dynstat_wvel_mean            =  -1.4949646400671E-05
(PID.TID 0000.0001) %MON dynstat_wvel_sd              =   6.0487801016057E-04
(PID.TID 0000.0001) %MON dynstat_wvel_del2            =   7.4114244379565E-08
(PID.TID 0000.0001) %MON dynstat_theta_max            =   2.6142428129080E+01
(PID.TID 0000.0001) %MON dynstat_theta_min            =   1.4688649034731E+00
(PID.TID 0000.0001) %MON dynstat_theta_mean           =   5.5098644148603E+00
(PID.TID 0000.0001) %MON dynstat_theta_sd             =   4.7733200119330E+00
(PID.TID 0000.0001) %MON dynstat_theta_del2           =   4.0291762988442E-06
(PID.TID 0000.0001) %MON dynstat_salt_max             =   3.9156237683401E+01
(PID.TID 0000.0001) %MON dynstat_salt_min             =   3.3098070099047E+01
(PID.TID 0000.0001) %MON dynstat_salt_mean            =   3.5173365979421E+01
(PID.TID 0000.0001) %MON dynstat_salt_sd              =   3.7891312277627E-01
(PID.TID 0000.0001) %MON dynstat_salt_del2            =   5.2375138962354E-07
(PID.TID 0000.0001) %MON dynstat_sst_max              =   2.6138817158224E+01
(PID.TID 0000.0001) %MON dynstat_sst_min              =   3.9355737268135E+00
(PID.TID 0000.0001) %MON dynstat_sst_mean             =   1.9637329518368E+01
(PID.TID 0000.0001) %MON dynstat_sst_sd               =   3.6391419395559E+00
(PID.TID 0000.0001) %MON dynstat_sst_del2             =   1.9180586347488E-05
(PID.TID 0000.0001) %MON dynstat_sss_max              =   3.7336145461997E+01
(PID.TID 0000.0001) %MON dynstat_sss_min              =   3.3098070099047E+01
(PID.TID 0000.0001) %MON dynstat_sss_mean             =   3.5868362983207E+01
(PID.TID 0000.0001) %MON dynstat_sss_sd               =   4.8718982989108E-01
(PID.TID 0000.0001) %MON dynstat_sss_del2             =   4.9239659292709E-06
(PID.TID 0000.0001) %MON forcing_qnet_max             =   1.1911599818043E+03
(PID.TID 0000.0001) %MON forcing_qnet_min             =  -2.9604782993467E+02
(PID.TID 0000.0001) %MON forcing_qnet_mean            =   2.4163185990962E+02
(PID.TID 0000.0001) %MON forcing_qnet_sd              =   1.4215035059305E+02
(PID.TID 0000.0001) %MON forcing_qnet_del2            =   1.6659100017727E-03
(PID.TID 0000.0001) %MON forcing_qsw_max              =   0.0000000000000E+00
(PID.TID 0000.0001) %MON forcing_qsw_min              =   0.0000000000000E+00
(PID.TID 0000.0001) %MON forcing_qsw_mean             =   0.0000000000000E+00
(PID.TID 0000.0001) %MON forcing_qsw_sd               =   0.0000000000000E+00
(PID.TID 0000.0001) %MON forcing_qsw_del2             =   0.0000000000000E+00
(PID.TID 0000.0001) %MON forcing_empmr_max            =   2.5724501230170E-04
(PID.TID 0000.0001) %MON forcing_empmr_min            =  -1.7560211076227E-03
(PID.TID 0000.0001) %MON forcing_empmr_mean           =   1.6824830063374E-05
(PID.TID 0000.0001) %MON forcing_empmr_sd             =   1.3268214721639E-04
(PID.TID 0000.0001) %MON forcing_empmr_del2           =   2.9973244257254E-09
(PID.TID 0000.0001) %MON forcing_fu_max               =   8.6616477977516E-01
(PID.TID 0000.0001) %MON forcing_fu_min               =  -4.0280202315175E-01
(PID.TID 0000.0001) %MON forcing_fu_mean              =   6.3528006482108E-02
(PID.TID 0000.0001) %MON forcing_fu_sd                =   1.5507216776820E-01
(PID.TID 0000.0001) %MON forcing_fu_del2              =   3.5173906116186E-07
(PID.TID 0000.0001) %MON forcing_fv_max               =   3.9420286789458E-01
(PID.TID 0000.0001) %MON forcing_fv_min               =  -5.6876827142403E-01
(PID.TID 0000.0001) %MON forcing_fv_mean              =   1.0860084575756E-02
(PID.TID 0000.0001) %MON forcing_fv_sd                =   1.0170729859710E-01
(PID.TID 0000.0001) %MON forcing_fv_del2              =   2.6205747648028E-07
(PID.TID 0000.0001) %MON trAdv_CFL_u_max              =   7.8006040909313E-02
(PID.TID 0000.0001) %MON trAdv_CFL_v_max              =   1.5728010996675E-01
(PID.TID 0000.0001) %MON trAdv_CFL_w_max              =   5.1062336882433E-01
(PID.TID 0000.0001) %MON advcfl_uvel_max              =   7.8006039847190E-02
(PID.TID 0000.0001) %MON advcfl_vvel_max              =   1.5732587240546E-01
(PID.TID 0000.0001) %MON advcfl_wvel_max              =   5.0211297934392E-01
(PID.TID 0000.0001) %MON advcfl_W_hf_max              =   5.1062336882433E-01
(PID.TID 0000.0001) %MON pe_b_mean                    =  -1.0258715916612E-03
(PID.TID 0000.0001) %MON ke_max                       =   2.8065468125062E+00
(PID.TID 0000.0001) %MON ke_mean                      =   2.5697127170666E-03
(PID.TID 0000.0001) %MON ke_vol                       =   4.5818637279723E+16
(PID.TID 0000.0001) %MON vort_r_min                   =  -5.1778968163464E-04
(PID.TID 0000.0001) %MON vort_r_max                   =   7.1667092896771E-04
(PID.TID 0000.0001) %MON vort_a_mean                  =   8.2147623060776E-05
(PID.TID 0000.0001) %MON vort_a_sd                    =   1.0145156013181E-05
(PID.TID 0000.0001) %MON vort_p_mean                  =   8.4848844368997E-05
(PID.TID 0000.0001) %MON vort_p_sd                    =   3.4976451470244E-05
(PID.TID 0000.0001) %MON surfExpan_theta_mean         =  -3.5587967610337E-04
(PID.TID 0000.0001) %MON surfExpan_salt_mean          =  -9.4371853575633E-04
(PID.TID 0000.0001) // =======================================================
(PID.TID 0000.0001) // End MONITOR dynamic field statistics
(PID.TID 0000.0001) // =======================================================
(PID.TID 0000.0001) // =======================================================
(PID.TID 0000.0001) // Begin OBCS MONITOR field statistics
(PID.TID 0000.0001) // =======================================================
(PID.TID 0000.0001) %MON obc_N_vVel_max               =   6.9462511267569E-01
(PID.TID 0000.0001) %MON obc_N_vVel_min               =  -3.2386652640102E-01
(PID.TID 0000.0001) %MON obc_N_vVel_mean              =   1.3498598564144E-02
(PID.TID 0000.0001) %MON obc_N_vVel_sd                =   6.4587781615046E-02
(PID.TID 0000.0001) %MON obc_N_vVel_Int               =   1.9323357857342E+08
(PID.TID 0000.0001) %MON obc_S_vVel_max               =   2.4892628007229E+00
(PID.TID 0000.0001) %MON obc_S_vVel_min               =  -2.6302812209586E-01
(PID.TID 0000.0001) %MON obc_S_vVel_mean              =  -3.5591813948131E-03
(PID.TID 0000.0001) %MON obc_S_vVel_sd                =   3.6260055291612E-02
(PID.TID 0000.0001) %MON obc_S_vVel_Int               =  -1.0835180212003E+08
(PID.TID 0000.0001) %MON obc_N_theta_max              =   1.6389891921106E+01
(PID.TID 0000.0001) %MON obc_N_theta_min              =   1.8895912667048E+00
(PID.TID 0000.0001) %MON obc_N_theta_mean             =   5.1588992762383E+00
(PID.TID 0000.0001) %MON obc_N_theta_sd               =   3.4826317304761E+00
(PID.TID 0000.0001) %MON obc_S_theta_max              =   2.5543811072233E+01
(PID.TID 0000.0001) %MON obc_S_theta_min              =   1.4633000000465E+00
(PID.TID 0000.0001) %MON obc_S_theta_mean             =   5.4595489249409E+00
(PID.TID 0000.0001) %MON obc_S_theta_sd               =   5.3558944527081E+00
(PID.TID 0000.0001) %MON obc_N_salt_max               =   3.5910863155963E+01
(PID.TID 0000.0001) %MON obc_N_salt_min               =   3.3295074599012E+01
(PID.TID 0000.0001) %MON obc_N_salt_mean              =   3.5114561060496E+01
(PID.TID 0000.0001) %MON obc_N_salt_sd                =   3.0984801724307E-01
(PID.TID 0000.0001) %MON obc_S_salt_max               =   3.7318270902396E+01
(PID.TID 0000.0001) %MON obc_S_salt_min               =   3.4844694888241E+01
(PID.TID 0000.0001) %MON obc_S_salt_mean              =   3.5168372147751E+01
(PID.TID 0000.0001) %MON obc_S_salt_sd                =   4.5716724612644E-01
(PID.TID 0000.0001) // =======================================================
(PID.TID 0000.0001) // End OBCS MONITOR field statistics
(PID.TID 0000.0001) // =======================================================
(PID.TID 0000.0001) // =======================================================
(PID.TID 0000.0001) // Begin MONITOR EXF statistics
(PID.TID 0000.0001) // =======================================================
(PID.TID 0000.0001) %MON exf_tsnumber                 =                    11
(PID.TID 0000.0001) %MON exf_time_sec                 =   2.6400000000000E+03
(PID.TID 0000.0001) %MON exf_ustress_max              =   8.7862414982764E-01
(PID.TID 0000.0001) %MON exf_ustress_min              =  -4.0040399689422E-01
(PID.TID 0000.0001) %MON exf_ustress_mean             =   6.3638768384042E-02
(PID.TID 0000.0001) %MON exf_ustress_sd               =   1.5519593322653E-01
(PID.TID 0000.0001) %MON exf_ustress_del2             =   4.0094973432091E-07
(PID.TID 0000.0001) %MON exf_vstress_max              =   3.9733359076196E-01
(PID.TID 0000.0001) %MON exf_vstress_min              =  -5.6583487578125E-01
(PID.TID 0000.0001) %MON exf_vstress_mean             =   1.0940760311430E-02
(PID.TID 0000.0001) %MON exf_vstress_sd               =   1.0176008936181E-01
(PID.TID 0000.0001) %MON exf_vstress_del2             =   2.9485607265935E-07
(PID.TID 0000.0001) %MON exf_hflux_max                =   1.1798909541501E+03
(PID.TID 0000.0001) %MON exf_hflux_min                =  -2.9385949772756E+02
(PID.TID 0000.0001) %MON exf_hflux_mean               =   2.3956692946665E+02
(PID.TID 0000.0001) %MON exf_hflux_sd                 =   1.4061043888796E+02
(PID.TID 0000.0001) %MON exf_hflux_del2               =   6.0613280528425E-02
(PID.TID 0000.0001) %MON exf_sflux_max                =   2.5797441737359E-07
(PID.TID 0000.0001) %MON exf_sflux_min                =  -1.7748310717133E-06
(PID.TID 0000.0001) %MON exf_sflux_mean               =   1.6590769257196E-08
(PID.TID 0000.0001) %MON exf_sflux_sd                 =   1.3237827626269E-07
(PID.TID 0000.0001) %MON exf_sflux_del2               =   2.3709740337887E-11
(PID.TID 0000.0001) %MON exf_uwind_max                =   1.9949283915584E+01
(PID.TID 0000.0001) %MON exf_uwind_min                =  -1.4818376815615E+01
(PID.TID 0000.0001) %MON exf_uwind_mean               =   2.4829243084051E+00
(PID.TID 0000.0001) %MON exf_uwind_sd                 =   6.6673503042864E+00
(PID.TID 0000.0001) %MON exf_uwind_del2               =   1.5412269261753E-03
(PID.TID 0000.0001) %MON exf_vwind_max                =   1.4523447108266E+01
(PID.TID 0000.0001) %MON exf_vwind_min                =  -1.2804880504714E+01
(PID.TID 0000.0001) %MON exf_vwind_mean               =   8.6380516064530E-01
(PID.TID 0000.0001) %MON exf_vwind_sd                 =   5.1783773625535E+00
(PID.TID 0000.0001) %MON exf_vwind_del2               =   1.1527317372877E-03
(PID.TID 0000.0001) %MON exf_wspeed_max               =   2.0257116272237E+01
(PID.TID 0000.0001) %MON exf_wspeed_min               =   4.6354785438374E-03
(PID.TID 0000.0001) %MON exf_wspeed_mean              =   7.7110243660721E+00
(PID.TID 0000.0001) %MON exf_wspeed_sd                =   4.3266994223937E+00
(PID.TID 0000.0001) %MON exf_wspeed_del2              =   1.9244257074210E-03
(PID.TID 0000.0001) %MON exf_atemp_max                =   2.9815365399267E+02
(PID.TID 0000.0001) %MON exf_atemp_min                =   2.7427014538059E+02
(PID.TID 0000.0001) %MON exf_atemp_mean               =   2.9066781352534E+02
(PID.TID 0000.0001) %MON exf_atemp_sd                 =   3.9458015647656E+00
(PID.TID 0000.0001) %MON exf_atemp_del2               =   3.7800718367875E-03
(PID.TID 0000.0001) %MON exf_aqh_max                  =   1.6745626223720E-02
(PID.TID 0000.0001) %MON exf_aqh_min                  =   2.7148212570767E-03
(PID.TID 0000.0001) %MON exf_aqh_mean                 =   9.4157028205885E-03
(PID.TID 0000.0001) %MON exf_aqh_sd                   =   2.8761932334855E-03
(PID.TID 0000.0001) %MON exf_aqh_del2                 =   2.0685683060323E-06
(PID.TID 0000.0001) %MON exf_lwflux_max               =   1.5367534971075E+02
(PID.TID 0000.0001) %MON exf_lwflux_min               =  -1.6583457710078E+00
(PID.TID 0000.0001) %MON exf_lwflux_mean              =   6.5365632118362E+01
(PID.TID 0000.0001) %MON exf_lwflux_sd                =   2.6559255676479E+01
(PID.TID 0000.0001) %MON exf_lwflux_del2              =   1.5053588927093E-02
(PID.TID 0000.0001) %MON exf_evap_max                 =   2.8512509467332E-07
(PID.TID 0000.0001) %MON exf_evap_min                 =  -9.8058128492182E-08
(PID.TID 0000.0001) %MON exf_evap_mean                =   5.9266097693071E-08
(PID.TID 0000.0001) %MON exf_evap_sd                  =   4.2073728503256E-08
(PID.TID 0000.0001) %MON exf_evap_del2                =   1.5830512533860E-11
(PID.TID 0000.0001) %MON exf_precip_max               =   1.9530076773174E-06
(PID.TID 0000.0001) %MON exf_precip_min               =   0.0000000000000E+00
(PID.TID 0000.0001) %MON exf_precip_mean              =   4.1086849030655E-08
(PID.TID 0000.0001) %MON exf_precip_sd                =   1.3784055398265E-07
(PID.TID 0000.0001) %MON exf_precip_del2              =   2.6064540454310E-11
(PID.TID 0000.0001) %MON exf_swflux_max               =   0.0000000000000E+00
(PID.TID 0000.0001) %MON exf_swflux_min               =   0.0000000000000E+00
(PID.TID 0000.0001) %MON exf_swflux_mean              =   0.0000000000000E+00
(PID.TID 0000.0001) %MON exf_swflux_sd                =   0.0000000000000E+00
(PID.TID 0000.0001) %MON exf_swflux_del2              =   0.0000000000000E+00
(PID.TID 0000.0001) %MON exf_swdown_max               =   0.0000000000000E+00
(PID.TID 0000.0001) %MON exf_swdown_min               =   0.0000000000000E+00
(PID.TID 0000.0001) %MON exf_swdown_mean              =   0.0000000000000E+00
(PID.TID 0000.0001) %MON exf_swdown_sd                =   0.0000000000000E+00
(PID.TID 0000.0001) %MON exf_swdown_del2              =   0.0000000000000E+00
(PID.TID 0000.0001) %MON exf_lwdown_max               =   4.1834379762812E+02
(PID.TID 0000.0001) %MON exf_lwdown_min               =   2.2446257076056E+02
(PID.TID 0000.0001) %MON exf_lwdown_mean              =   3.4966587941355E+02
(PID.TID 0000.0001) %MON exf_lwdown_sd                =   3.1662579062329E+01
(PID.TID 0000.0001) %MON exf_lwdown_del2              =   7.4862778227846E-02
(PID.TID 0000.0001) %MON exf_apressure_max            =   1.0280887953443E+05
(PID.TID 0000.0001) %MON exf_apressure_min            =   1.0001557376642E+05
(PID.TID 0000.0001) %MON exf_apressure_mean           =   1.0216762915247E+05
(PID.TID 0000.0001) %MON exf_apressure_sd             =   4.9875562730687E+02
(PID.TID 0000.0001) %MON exf_apressure_del2           =   2.1828703867923E+01
(PID.TID 0000.0001) %MON exf_runoff_max               =   4.4374791284855E-08
(PID.TID 0000.0001) %MON exf_runoff_min               =   0.0000000000000E+00
(PID.TID 0000.0001) %MON exf_runoff_mean              =   1.5884794052193E-09
(PID.TID 0000.0001) %MON exf_runoff_sd                =   5.3901957917178E-09
(PID.TID 0000.0001) %MON exf_runoff_del2              =   1.1512509897985E-12
(PID.TID 0000.0001) // =======================================================
(PID.TID 0000.0001) // End MONITOR EXF statistics
(PID.TID 0000.0001) // =======================================================
 cg2d: Sum(rhs),rhsMax =   1.53870977442444E+03  8.95678860970774E-02
(PID.TID 0000.0001)      cg2d_init_res =   1.52891998186774E+00
(PID.TID 0000.0001)      cg2d_iters(min,last) =      -1     312
(PID.TID 0000.0001)      cg2d_last_res =   6.71466349038036E-12
(PID.TID 0000.0001) // =======================================================
(PID.TID 0000.0001) // Begin MONITOR dynamic field statistics
(PID.TID 0000.0001) // =======================================================
(PID.TID 0000.0001) %MON time_tsnumber                =                    12
(PID.TID 0000.0001) %MON time_secondsf                =   2.8800000000000E+03
(PID.TID 0000.0001) %MON dynstat_eta_max              =   8.4151159844092E-01
(PID.TID 0000.0001) %MON dynstat_eta_min              =  -1.1245382672363E+00
(PID.TID 0000.0001) %MON dynstat_eta_mean             =  -5.2327058854362E-02
(PID.TID 0000.0001) %MON dynstat_eta_sd               =   2.6040296188275E-01
(PID.TID 0000.0001) %MON dynstat_eta_del2             =   2.3330128229932E-06
(PID.TID 0000.0001) %MON dynstat_uvel_max             =   1.2794101123750E+00
(PID.TID 0000.0001) %MON dynstat_uvel_min             =  -7.0055749787732E-01
(PID.TID 0000.0001) %MON dynstat_uvel_mean            =   1.7277108808784E-03
(PID.TID 0000.0001) %MON dynstat_uvel_sd              =   5.2268339942275E-02
(PID.TID 0000.0001) %MON dynstat_uvel_del2            =   5.2962135838785E-07
(PID.TID 0000.0001) %MON dynstat_vvel_max             =   2.5498895951784E+00
(PID.TID 0000.0001) %MON dynstat_vvel_min             =  -9.1866993882263E-01
(PID.TID 0000.0001) %MON dynstat_vvel_mean            =  -4.4174833518369E-03
(PID.TID 0000.0001) %MON dynstat_vvel_sd              =   4.9323636128557E-02
(PID.TID 0000.0001) %MON dynstat_vvel_del2            =   4.8386319014600E-07
(PID.TID 0000.0001) %MON dynstat_wvel_max             =   3.5548792630667E-02
(PID.TID 0000.0001) %MON dynstat_wvel_min             =  -3.1933357655265E-02
(PID.TID 0000.0001) %MON dynstat_wvel_mean            =  -1.6058314563893E-05
(PID.TID 0000.0001) %MON dynstat_wvel_sd              =   6.0698966146555E-04
(PID.TID 0000.0001) %MON dynstat_wvel_del2            =   7.2463156279197E-08
(PID.TID 0000.0001) %MON dynstat_theta_max            =   2.6144134824663E+01
(PID.TID 0000.0001) %MON dynstat_theta_min            =   1.4688650790830E+00
(PID.TID 0000.0001) %MON dynstat_theta_mean           =   5.5098743312658E+00
(PID.TID 0000.0001) %MON dynstat_theta_sd             =   4.7733170300512E+00
(PID.TID 0000.0001) %MON dynstat_theta_del2           =   4.0316464109363E-06
(PID.TID 0000.0001) %MON dynstat_salt_max             =   3.9152189446864E+01
(PID.TID 0000.0001) %MON dynstat_salt_min             =   3.3099119048180E+01
(PID.TID 0000.0001) %MON dynstat_salt_mean            =   3.5173366186871E+01
(PID.TID 0000.0001) %MON dynstat_salt_sd              =   3.7891401432149E-01
(PID.TID 0000.0001) %MON dynstat_salt_del2            =   5.2637356183127E-07
(PID.TID 0000.0001) %MON dynstat_sst_max              =   2.6140359778230E+01
(PID.TID 0000.0001) %MON dynstat_sst_min              =   3.9215425527070E+00
(PID.TID 0000.0001) %MON dynstat_sst_mean             =   1.9636640526125E+01
(PID.TID 0000.0001) %MON dynstat_sst_sd               =   3.6391790151584E+00
(PID.TID 0000.0001) %MON dynstat_sst_del2             =   1.9216494764335E-05
(PID.TID 0000.0001) %MON dynstat_sss_max              =   3.7336222050928E+01
(PID.TID 0000.0001) %MON dynstat_sss_min              =   3.3099119048180E+01
(PID.TID 0000.0001) %MON dynstat_sss_mean             =   3.5868392797382E+01
(PID.TID 0000.0001) %MON dynstat_sss_sd               =   4.8718646009553E-01
(PID.TID 0000.0001) %MON dynstat_sss_del2             =   4.9175281570733E-06
(PID.TID 0000.0001) %MON forcing_qnet_max             =   1.1980499164933E+03
(PID.TID 0000.0001) %MON forcing_qnet_min             =  -2.9874055757923E+02
(PID.TID 0000.0001) %MON forcing_qnet_mean            =   2.4164993061490E+02
(PID.TID 0000.0001) %MON forcing_qnet_sd              =   1.4229414548892E+02
(PID.TID 0000.0001) %MON forcing_qnet_del2            =   1.6662561609376E-03
(PID.TID 0000.0001) %MON forcing_qsw_max              =   0.0000000000000E+00
(PID.TID 0000.0001) %MON forcing_qsw_min              =   0.0000000000000E+00
(PID.TID 0000.0001) %MON forcing_qsw_mean             =   0.0000000000000E+00
(PID.TID 0000.0001) %MON forcing_qsw_sd               =   0.0000000000000E+00
(PID.TID 0000.0001) %MON forcing_qsw_del2             =   0.0000000000000E+00
(PID.TID 0000.0001) %MON forcing_empmr_max            =   2.5797441737359E-04
(PID.TID 0000.0001) %MON forcing_empmr_min            =  -1.7748310717133E-03
(PID.TID 0000.0001) %MON forcing_empmr_mean           =   1.6590769257196E-05
(PID.TID 0000.0001) %MON forcing_empmr_sd             =   1.3237827626269E-04
(PID.TID 0000.0001) %MON forcing_empmr_del2           =   2.8534291666555E-09
(PID.TID 0000.0001) %MON forcing_fu_max               =   8.7828242645588E-01
(PID.TID 0000.0001) %MON forcing_fu_min               =  -4.0039803583367E-01
(PID.TID 0000.0001) %MON forcing_fu_mean              =   6.3699546127040E-02
(PID.TID 0000.0001) %MON forcing_fu_sd                =   1.5525635100179E-01
(PID.TID 0000.0001) %MON forcing_fu_del2              =   3.6215745362037E-07
(PID.TID 0000.0001) %MON forcing_fv_max               =   3.9730421242367E-01
(PID.TID 0000.0001) %MON forcing_fv_min               =  -5.7023738741729E-01
(PID.TID 0000.0001) %MON forcing_fv_mean              =   1.0923154764875E-02
(PID.TID 0000.0001) %MON forcing_fv_sd                =   1.0189220833108E-01
(PID.TID 0000.0001) %MON forcing_fv_del2              =   2.7380001693352E-07
(PID.TID 0000.0001) %MON trAdv_CFL_u_max              =   7.7622787570361E-02
(PID.TID 0000.0001) %MON trAdv_CFL_v_max              =   1.6111071752499E-01
(PID.TID 0000.0001) %MON trAdv_CFL_w_max              =   5.2036326500656E-01
(PID.TID 0000.0001) %MON advcfl_uvel_max              =   7.7622786513456E-02
(PID.TID 0000.0001) %MON advcfl_vvel_max              =   1.6115759452258E-01
(PID.TID 0000.0001) %MON advcfl_wvel_max              =   5.1169054392312E-01
(PID.TID 0000.0001) %MON advcfl_W_hf_max              =   5.2036326500656E-01
(PID.TID 0000.0001) %MON pe_b_mean                    =  -1.1854435016979E-03
(PID.TID 0000.0001) %MON ke_max                       =   2.9505854764749E+00
(PID.TID 0000.0001) %MON ke_mean                      =   2.5745343342971E-03
(PID.TID 0000.0001) %MON ke_vol                       =   4.5818637279723E+16
(PID.TID 0000.0001) %MON vort_r_min                   =  -5.1796002958485E-04
(PID.TID 0000.0001) %MON vort_r_max                   =   7.4282644106136E-04
(PID.TID 0000.0001) %MON vort_a_mean                  =   8.2147622239576E-05
(PID.TID 0000.0001) %MON vort_a_sd                    =   1.0148597615426E-05
(PID.TID 0000.0001) %MON vort_p_mean                  =   8.4848843520794E-05
(PID.TID 0000.0001) %MON vort_p_sd                    =   3.4979226813304E-05
(PID.TID 0000.0001) %MON surfExpan_theta_mean         =  -3.9736437679238E-04
(PID.TID 0000.0001) %MON surfExpan_salt_mean          =  -1.0085495383972E-03
(PID.TID 0000.0001) // =======================================================
(PID.TID 0000.0001) // End MONITOR dynamic field statistics
(PID.TID 0000.0001) // =======================================================
(PID.TID 0000.0001) // =======================================================
(PID.TID 0000.0001) // Begin OBCS MONITOR field statistics
(PID.TID 0000.0001) // =======================================================
(PID.TID 0000.0001) %MON obc_N_vVel_max               =   6.9445057130833E-01
(PID.TID 0000.0001) %MON obc_N_vVel_min               =  -3.2418597803533E-01
(PID.TID 0000.0001) %MON obc_N_vVel_mean              =   1.3447344925230E-02
(PID.TID 0000.0001) %MON obc_N_vVel_sd                =   6.4566341463580E-02
(PID.TID 0000.0001) %MON obc_N_vVel_Int               =   1.9249987840335E+08
(PID.TID 0000.0001) %MON obc_S_vVel_max               =   2.5498895951784E+00
(PID.TID 0000.0001) %MON obc_S_vVel_min               =  -2.6309677804153E-01
(PID.TID 0000.0001) %MON obc_S_vVel_mean              =  -4.2444228596303E-03
(PID.TID 0000.0001) %MON obc_S_vVel_sd                =   3.6332683878914E-02
(PID.TID 0000.0001) %MON obc_S_vVel_Int               =  -1.2921253928519E+08
(PID.TID 0000.0001) %MON obc_N_theta_max              =   1.6389803818919E+01
(PID.TID 0000.0001) %MON obc_N_theta_min              =   1.8895913157701E+00
(PID.TID 0000.0001) %MON obc_N_theta_mean             =   5.1588918920883E+00
(PID.TID 0000.0001) %MON obc_N_theta_sd               =   3.4826224400858E+00
(PID.TID 0000.0001) %MON obc_S_theta_max              =   2.5543708323453E+01
(PID.TID 0000.0001) %MON obc_S_theta_min              =   1.4633003963337E+00
(PID.TID 0000.0001) %MON obc_S_theta_mean             =   5.4595481199164E+00
(PID.TID 0000.0001) %MON obc_S_theta_sd               =   5.3558905817402E+00
(PID.TID 0000.0001) %MON obc_N_salt_max               =   3.5910862747600E+01
(PID.TID 0000.0001) %MON obc_N_salt_min               =   3.3295080101645E+01
(PID.TID 0000.0001) %MON obc_N_salt_mean              =   3.5114560764510E+01
(PID.TID 0000.0001) %MON obc_N_salt_sd                =   3.0984789815314E-01
(PID.TID 0000.0001) %MON obc_S_salt_max               =   3.7318264018012E+01
(PID.TID 0000.0001) %MON obc_S_salt_min               =   3.4844694940461E+01
(PID.TID 0000.0001) %MON obc_S_salt_mean              =   3.5168372075834E+01
(PID.TID 0000.0001) %MON obc_S_salt_sd                =   4.5716689510585E-01
(PID.TID 0000.0001) // =======================================================
(PID.TID 0000.0001) // End OBCS MONITOR field statistics
(PID.TID 0000.0001) // =======================================================
(PID.TID 0000.0001) // =======================================================
(PID.TID 0000.0001) // Begin MONITOR EXF statistics
(PID.TID 0000.0001) // =======================================================
(PID.TID 0000.0001) %MON exf_tsnumber                 =                    12
(PID.TID 0000.0001) %MON exf_time_sec                 =   2.8800000000000E+03
(PID.TID 0000.0001) %MON exf_ustress_max              =   8.9135827253076E-01
(PID.TID 0000.0001) %MON exf_ustress_min              =  -3.9811111925735E-01
(PID.TID 0000.0001) %MON exf_ustress_mean             =   6.3833675814888E-02
(PID.TID 0000.0001) %MON exf_ustress_sd               =   1.5545164170414E-01
(PID.TID 0000.0001) %MON exf_ustress_del2             =   4.1446294804259E-07
(PID.TID 0000.0001) %MON exf_vstress_max              =   4.0123303528579E-01
(PID.TID 0000.0001) %MON exf_vstress_min              =  -5.6732271457143E-01
(PID.TID 0000.0001) %MON exf_vstress_mean             =   1.1006221352523E-02
(PID.TID 0000.0001) %MON exf_vstress_sd               =   1.0200808972130E-01
(PID.TID 0000.0001) %MON exf_vstress_del2             =   3.0986444440004E-07
(PID.TID 0000.0001) %MON exf_hflux_max                =   1.1867749648761E+03
(PID.TID 0000.0001) %MON exf_hflux_min                =  -2.9657360421490E+02
(PID.TID 0000.0001) %MON exf_hflux_mean               =   2.3962293003243E+02
(PID.TID 0000.0001) %MON exf_hflux_sd                 =   1.4081509930763E+02
(PID.TID 0000.0001) %MON exf_hflux_del2               =   6.0641781760870E-02
(PID.TID 0000.0001) %MON exf_sflux_max                =   2.5873030880739E-07
(PID.TID 0000.0001) %MON exf_sflux_min                =  -1.7936406750198E-06
(PID.TID 0000.0001) %MON exf_sflux_mean               =   1.6364034949132E-08
(PID.TID 0000.0001) %MON exf_sflux_sd                 =   1.3238292828115E-07
(PID.TID 0000.0001) %MON exf_sflux_del2               =   2.3911423113233E-11
(PID.TID 0000.0001) %MON exf_uwind_max                =   2.0064596276508E+01
(PID.TID 0000.0001) %MON exf_uwind_min                =  -1.4793962632562E+01
(PID.TID 0000.0001) %MON exf_uwind_mean               =   2.4848591451637E+00
(PID.TID 0000.0001) %MON exf_uwind_sd                 =   6.6689937558824E+00
(PID.TID 0000.0001) %MON exf_uwind_del2               =   1.5413262385048E-03
(PID.TID 0000.0001) %MON exf_vwind_max                =   1.4590203997655E+01
(PID.TID 0000.0001) %MON exf_vwind_min                =  -1.2822933877702E+01
(PID.TID 0000.0001) %MON exf_vwind_mean               =   8.6548004134424E-01
(PID.TID 0000.0001) %MON exf_vwind_sd                 =   5.1818302866177E+00
(PID.TID 0000.0001) %MON exf_vwind_del2               =   1.1538263824684E-03
(PID.TID 0000.0001) %MON exf_wspeed_max               =   2.0248936270139E+01
(PID.TID 0000.0001) %MON exf_wspeed_min               =   1.1997708895017E-02
(PID.TID 0000.0001) %MON exf_wspeed_mean              =   7.7130768790579E+00
(PID.TID 0000.0001) %MON exf_wspeed_sd                =   4.3311509516892E+00
(PID.TID 0000.0001) %MON exf_wspeed_del2              =   1.9251518837559E-03
(PID.TID 0000.0001) %MON exf_atemp_max                =   2.9815145670426E+02
(PID.TID 0000.0001) %MON exf_atemp_min                =   2.7424454417195E+02
(PID.TID 0000.0001) %MON exf_atemp_mean               =   2.9066469231914E+02
(PID.TID 0000.0001) %MON exf_atemp_sd                 =   3.9466897201915E+00
(PID.TID 0000.0001) %MON exf_atemp_del2               =   3.7794760860930E-03
(PID.TID 0000.0001) %MON exf_aqh_max                  =   1.6738639922846E-02
(PID.TID 0000.0001) %MON exf_aqh_min                  =   2.7125265593127E-03
(PID.TID 0000.0001) %MON exf_aqh_mean                 =   9.4145146677745E-03
(PID.TID 0000.0001) %MON exf_aqh_sd                   =   2.8774129248553E-03
(PID.TID 0000.0001) %MON exf_aqh_del2                 =   2.0683514200233E-06
(PID.TID 0000.0001) %MON exf_lwflux_max               =   1.5394666322266E+02
(PID.TID 0000.0001) %MON exf_lwflux_min               =  -2.5803637107504E-01
(PID.TID 0000.0001) %MON exf_lwflux_mean              =   6.5347777004327E+01
(PID.TID 0000.0001) %MON exf_lwflux_sd                =   2.6515921721539E+01
(PID.TID 0000.0001) %MON exf_lwflux_del2              =   1.5048182902737E-02
(PID.TID 0000.0001) %MON exf_evap_max                 =   2.8719112299824E-07
(PID.TID 0000.0001) %MON exf_evap_min                 =  -9.8931457348719E-08
(PID.TID 0000.0001) %MON exf_evap_mean                =   5.9282498657234E-08
(PID.TID 0000.0001) %MON exf_evap_sd                  =   4.2110535736967E-08
(PID.TID 0000.0001) %MON exf_evap_del2                =   1.5836544055238E-11
(PID.TID 0000.0001) %MON exf_precip_max               =   1.9724582042779E-06
(PID.TID 0000.0001) %MON exf_precip_min               =   0.0000000000000E+00
(PID.TID 0000.0001) %MON exf_precip_mean              =   4.1329984302883E-08
(PID.TID 0000.0001) %MON exf_precip_sd                =   1.3800384791430E-07
(PID.TID 0000.0001) %MON exf_precip_del2              =   2.6368889265090E-11
(PID.TID 0000.0001) %MON exf_swflux_max               =   0.0000000000000E+00
(PID.TID 0000.0001) %MON exf_swflux_min               =   0.0000000000000E+00
(PID.TID 0000.0001) %MON exf_swflux_mean              =   0.0000000000000E+00
(PID.TID 0000.0001) %MON exf_swflux_sd                =   0.0000000000000E+00
(PID.TID 0000.0001) %MON exf_swflux_del2              =   0.0000000000000E+00
(PID.TID 0000.0001) %MON exf_swdown_max               =   0.0000000000000E+00
(PID.TID 0000.0001) %MON exf_swdown_min               =   0.0000000000000E+00
(PID.TID 0000.0001) %MON exf_swdown_mean              =   0.0000000000000E+00
(PID.TID 0000.0001) %MON exf_swdown_sd                =   0.0000000000000E+00
(PID.TID 0000.0001) %MON exf_swdown_del2              =   0.0000000000000E+00
(PID.TID 0000.0001) %MON exf_lwdown_max               =   4.1837492023739E+02
(PID.TID 0000.0001) %MON exf_lwdown_min               =   2.2467589834697E+02
(PID.TID 0000.0001) %MON exf_lwdown_mean              =   3.4968037056655E+02
(PID.TID 0000.0001) %MON exf_lwdown_sd                =   3.1587078891321E+01
(PID.TID 0000.0001) %MON exf_lwdown_del2              =   7.4861356526850E-02
(PID.TID 0000.0001) %MON exf_apressure_max            =   1.0281199025705E+05
(PID.TID 0000.0001) %MON exf_apressure_min            =   1.0001627344352E+05
(PID.TID 0000.0001) %MON exf_apressure_mean           =   1.0216840645902E+05
(PID.TID 0000.0001) %MON exf_apressure_sd             =   4.9879168551480E+02
(PID.TID 0000.0001) %MON exf_apressure_del2           =   2.1828873005011E+01
(PID.TID 0000.0001) %MON exf_runoff_max               =   4.4374791284855E-08
(PID.TID 0000.0001) %MON exf_runoff_min               =   0.0000000000000E+00
(PID.TID 0000.0001) %MON exf_runoff_mean              =   1.5884794052193E-09
(PID.TID 0000.0001) %MON exf_runoff_sd                =   5.3901957917178E-09
(PID.TID 0000.0001) %MON exf_runoff_del2              =   1.1512509897985E-12
(PID.TID 0000.0001) // =======================================================
(PID.TID 0000.0001) // End MONITOR EXF statistics
(PID.TID 0000.0001) // =======================================================
 cg2d: Sum(rhs),rhsMax =   1.75193148624879E+03  8.14950227065468E-02
(PID.TID 0000.0001)      cg2d_init_res =   1.44781626470308E+00
(PID.TID 0000.0001)      cg2d_iters(min,last) =      -1     312
(PID.TID 0000.0001)      cg2d_last_res =   6.41109854257187E-12
(PID.TID 0000.0001) // =======================================================
(PID.TID 0000.0001) // Begin MONITOR dynamic field statistics
(PID.TID 0000.0001) // =======================================================
(PID.TID 0000.0001) %MON time_tsnumber                =                    13
(PID.TID 0000.0001) %MON time_secondsf                =   3.1200000000000E+03
(PID.TID 0000.0001) %MON dynstat_eta_max              =   8.0322300414718E-01
(PID.TID 0000.0001) %MON dynstat_eta_min              =  -1.2245249264792E+00
(PID.TID 0000.0001) %MON dynstat_eta_mean             =  -5.9578111163973E-02
(PID.TID 0000.0001) %MON dynstat_eta_sd               =   2.6938932085902E-01
(PID.TID 0000.0001) %MON dynstat_eta_del2             =   2.3589390984940E-06
(PID.TID 0000.0001) %MON dynstat_uvel_max             =   1.2733126673375E+00
(PID.TID 0000.0001) %MON dynstat_uvel_min             =  -7.9962510820353E-01
(PID.TID 0000.0001) %MON dynstat_uvel_mean            =   1.5021896945954E-03
(PID.TID 0000.0001) %MON dynstat_uvel_sd              =   5.2277967793649E-02
(PID.TID 0000.0001) %MON dynstat_uvel_del2            =   5.3767133657870E-07
(PID.TID 0000.0001) %MON dynstat_vvel_max             =   2.6099963963822E+00
(PID.TID 0000.0001) %MON dynstat_vvel_min             =  -9.1793438695869E-01
(PID.TID 0000.0001) %MON dynstat_vvel_mean            =  -4.6240296627635E-03
(PID.TID 0000.0001) %MON dynstat_vvel_sd              =   4.9393829556354E-02
(PID.TID 0000.0001) %MON dynstat_vvel_del2            =   4.9139902889933E-07
(PID.TID 0000.0001) %MON dynstat_wvel_max             =   3.6887527348121E-02
(PID.TID 0000.0001) %MON dynstat_wvel_min             =  -3.2454762218471E-02
(PID.TID 0000.0001) %MON dynstat_wvel_mean            =  -1.7147359681995E-05
(PID.TID 0000.0001) %MON dynstat_wvel_sd              =   6.0868809338899E-04
(PID.TID 0000.0001) %MON dynstat_wvel_del2            =   7.1151531956187E-08
(PID.TID 0000.0001) %MON dynstat_theta_max            =   2.6145779986393E+01
(PID.TID 0000.0001) %MON dynstat_theta_min            =   1.4688652665677E+00
(PID.TID 0000.0001) %MON dynstat_theta_mean           =   5.5098860330655E+00
(PID.TID 0000.0001) %MON dynstat_theta_sd             =   4.7733166610183E+00
(PID.TID 0000.0001) %MON dynstat_theta_del2           =   4.0332953960278E-06
(PID.TID 0000.0001) %MON dynstat_salt_max             =   3.9147967247965E+01
(PID.TID 0000.0001) %MON dynstat_salt_min             =   3.3100205337583E+01
(PID.TID 0000.0001) %MON dynstat_salt_mean            =   3.5173366500852E+01
(PID.TID 0000.0001) %MON dynstat_salt_sd              =   3.7891497000539E-01
(PID.TID 0000.0001) %MON dynstat_salt_del2            =   5.2862797748675E-07
(PID.TID 0000.0001) %MON dynstat_sst_max              =   2.6141858369537E+01
(PID.TID 0000.0001) %MON dynstat_sst_min              =   3.9075767842796E+00
(PID.TID 0000.0001) %MON dynstat_sst_mean             =   1.9635979756733E+01
(PID.TID 0000.0001) %MON dynstat_sst_sd               =   3.6392148960621E+00
(PID.TID 0000.0001) %MON dynstat_sst_del2             =   1.9259052442208E-05
(PID.TID 0000.0001) %MON dynstat_sss_max              =   3.7336296180801E+01
(PID.TID 0000.0001) %MON dynstat_sss_min              =   3.3100205337583E+01
(PID.TID 0000.0001) %MON dynstat_sss_mean             =   3.5868421104237E+01
(PID.TID 0000.0001) %MON dynstat_sss_sd               =   4.8718207127397E-01
(PID.TID 0000.0001) %MON dynstat_sss_del2             =   4.9114051324550E-06
(PID.TID 0000.0001) %MON forcing_qnet_max             =   1.2050685436822E+03
(PID.TID 0000.0001) %MON forcing_qnet_min             =  -3.0149177959254E+02
(PID.TID 0000.0001) %MON forcing_qnet_mean            =   2.4169116938590E+02
(PID.TID 0000.0001) %MON forcing_qnet_sd              =   1.4247664155051E+02
(PID.TID 0000.0001) %MON forcing_qnet_del2            =   1.6686307062524E-03
(PID.TID 0000.0001) %MON forcing_qsw_max              =   0.0000000000000E+00
(PID.TID 0000.0001) %MON forcing_qsw_min              =   0.0000000000000E+00
(PID.TID 0000.0001) %MON forcing_qsw_mean             =   0.0000000000000E+00
(PID.TID 0000.0001) %MON forcing_qsw_sd               =   0.0000000000000E+00
(PID.TID 0000.0001) %MON forcing_qsw_del2             =   0.0000000000000E+00
(PID.TID 0000.0001) %MON forcing_empmr_max            =   2.5873030880739E-04
(PID.TID 0000.0001) %MON forcing_empmr_min            =  -1.7936406750198E-03
(PID.TID 0000.0001) %MON forcing_empmr_mean           =   1.6364034949132E-05
(PID.TID 0000.0001) %MON forcing_empmr_sd             =   1.3238292828115E-04
(PID.TID 0000.0001) %MON forcing_empmr_del2           =   2.7392134216216E-09
(PID.TID 0000.0001) %MON forcing_fu_max               =   8.9130951126730E-01
(PID.TID 0000.0001) %MON forcing_fu_min               =  -3.9802875508290E-01
(PID.TID 0000.0001) %MON forcing_fu_mean              =   6.3894977788030E-02
(PID.TID 0000.0001) %MON forcing_fu_sd                =   1.5551219103182E-01
(PID.TID 0000.0001) %MON forcing_fu_del2              =   3.7587496386472E-07
(PID.TID 0000.0001) %MON forcing_fv_max               =   4.0103872005209E-01
(PID.TID 0000.0001) %MON forcing_fv_min               =  -5.7184893361428E-01
(PID.TID 0000.0001) %MON forcing_fv_mean              =   1.0989019487206E-02
(PID.TID 0000.0001) %MON forcing_fv_sd                =   1.0214028502191E-01
(PID.TID 0000.0001) %MON forcing_fv_del2              =   2.8834934512672E-07
(PID.TID 0000.0001) %MON trAdv_CFL_u_max              =   7.7252850928239E-02
(PID.TID 0000.0001) %MON trAdv_CFL_v_max              =   1.6490847013686E-01
(PID.TID 0000.0001) %MON trAdv_CFL_w_max              =   5.2707565453136E-01
(PID.TID 0000.0001) %MON advcfl_uvel_max              =   7.7252849876372E-02
(PID.TID 0000.0001) %MON advcfl_vvel_max              =   1.6495645213381E-01
(PID.TID 0000.0001) %MON advcfl_wvel_max              =   5.1829106028917E-01
(PID.TID 0000.0001) %MON advcfl_W_hf_max              =   5.2707565453136E-01
(PID.TID 0000.0001) %MON pe_b_mean                    =  -1.3553776018848E-03
(PID.TID 0000.0001) %MON ke_max                       =   3.0992954735585E+00
(PID.TID 0000.0001) %MON ke_mean                      =   2.5790402132296E-03
(PID.TID 0000.0001) %MON ke_vol                       =   4.5818637279723E+16
(PID.TID 0000.0001) %MON vort_r_min                   =  -5.1763020999385E-04
(PID.TID 0000.0001) %MON vort_r_max                   =   7.6319461056222E-04
(PID.TID 0000.0001) %MON vort_a_mean                  =   8.2147621412599E-05
(PID.TID 0000.0001) %MON vort_a_sd                    =   1.0151966712512E-05
(PID.TID 0000.0001) %MON vort_p_mean                  =   8.4848842666623E-05
(PID.TID 0000.0001) %MON vort_p_sd                    =   3.4982387499877E-05
(PID.TID 0000.0001) %MON surfExpan_theta_mean         =  -4.3714239679787E-04
(PID.TID 0000.0001) %MON surfExpan_salt_mean          =  -1.0718467307521E-03
(PID.TID 0000.0001) // =======================================================
(PID.TID 0000.0001) // End MONITOR dynamic field statistics
(PID.TID 0000.0001) // =======================================================
(PID.TID 0000.0001) // =======================================================
(PID.TID 0000.0001) // Begin OBCS MONITOR field statistics
(PID.TID 0000.0001) // =======================================================
(PID.TID 0000.0001) %MON obc_N_vVel_max               =   6.9426531208340E-01
(PID.TID 0000.0001) %MON obc_N_vVel_min               =  -3.2452656104798E-01
(PID.TID 0000.0001) %MON obc_N_vVel_mean              =   1.3381664447098E-02
(PID.TID 0000.0001) %MON obc_N_vVel_sd                =   6.4543608601925E-02
(PID.TID 0000.0001) %MON obc_N_vVel_Int               =   1.9155965681133E+08
(PID.TID 0000.0001) %MON obc_S_vVel_max               =   2.6099963963822E+00
(PID.TID 0000.0001) %MON obc_S_vVel_min               =  -2.6315746208509E-01
(PID.TID 0000.0001) %MON obc_S_vVel_mean              =  -4.9235880448266E-03
(PID.TID 0000.0001) %MON obc_S_vVel_sd                =   3.6409914101142E-02
(PID.TID 0000.0001) %MON obc_S_vVel_Int               =  -1.4988829687946E+08
(PID.TID 0000.0001) %MON obc_N_theta_max              =   1.6389715716732E+01
(PID.TID 0000.0001) %MON obc_N_theta_min              =   1.8895913648355E+00
(PID.TID 0000.0001) %MON obc_N_theta_mean             =   5.1588845079382E+00
(PID.TID 0000.0001) %MON obc_N_theta_sd               =   3.4826131499334E+00
(PID.TID 0000.0001) %MON obc_S_theta_max              =   2.5543605574674E+01
(PID.TID 0000.0001) %MON obc_S_theta_min              =   1.4633007926210E+00
(PID.TID 0000.0001) %MON obc_S_theta_mean             =   5.4595473148918E+00
(PID.TID 0000.0001) %MON obc_S_theta_sd               =   5.3558867108083E+00
(PID.TID 0000.0001) %MON obc_N_salt_max               =   3.5910862339236E+01
(PID.TID 0000.0001) %MON obc_N_salt_min               =   3.3295085604278E+01
(PID.TID 0000.0001) %MON obc_N_salt_mean              =   3.5114560468523E+01
(PID.TID 0000.0001) %MON obc_N_salt_sd                =   3.0984777912182E-01
(PID.TID 0000.0001) %MON obc_S_salt_max               =   3.7318257133628E+01
(PID.TID 0000.0001) %MON obc_S_salt_min               =   3.4844694992682E+01
(PID.TID 0000.0001) %MON obc_S_salt_mean              =   3.5168372003918E+01
(PID.TID 0000.0001) %MON obc_S_salt_sd                =   4.5716654409342E-01
(PID.TID 0000.0001) // =======================================================
(PID.TID 0000.0001) // End OBCS MONITOR field statistics
(PID.TID 0000.0001) // =======================================================
(PID.TID 0000.0001) // =======================================================
(PID.TID 0000.0001) // Begin MONITOR EXF statistics
(PID.TID 0000.0001) // =======================================================
(PID.TID 0000.0001) %MON exf_tsnumber                 =                    13
(PID.TID 0000.0001) %MON exf_time_sec                 =   3.1200000000000E+03
(PID.TID 0000.0001) %MON exf_ustress_max              =   9.0502555219527E-01
(PID.TID 0000.0001) %MON exf_ustress_min              =  -3.9587576826408E-01
(PID.TID 0000.0001) %MON exf_ustress_mean             =   6.4052377038109E-02
(PID.TID 0000.0001) %MON exf_ustress_sd               =   1.5577960905250E-01
(PID.TID 0000.0001) %MON exf_ustress_del2             =   4.3054196930332E-07
(PID.TID 0000.0001) %MON exf_vstress_max              =   4.0595825755877E-01
(PID.TID 0000.0001) %MON exf_vstress_min              =  -5.6886690306522E-01
(PID.TID 0000.0001) %MON exf_vstress_mean             =   1.1072829437599E-02
(PID.TID 0000.0001) %MON exf_vstress_sd               =   1.0231989137737E-01
(PID.TID 0000.0001) %MON exf_vstress_del2             =   3.2804537951914E-07
(PID.TID 0000.0001) %MON exf_hflux_max                =   1.1937822232354E+03
(PID.TID 0000.0001) %MON exf_hflux_min                =  -2.9934159730485E+02
(PID.TID 0000.0001) %MON exf_hflux_mean               =   2.3970155354257E+02
(PID.TID 0000.0001) %MON exf_hflux_sd                 =   1.4105909170682E+02
(PID.TID 0000.0001) %MON exf_hflux_del2               =   6.0676789044448E-02
(PID.TID 0000.0001) %MON exf_sflux_max                =   2.5979347819336E-07
(PID.TID 0000.0001) %MON exf_sflux_min                =  -1.8124518819560E-06
(PID.TID 0000.0001) %MON exf_sflux_mean               =   1.6144539632155E-08
(PID.TID 0000.0001) %MON exf_sflux_sd                 =   1.3269601606293E-07
(PID.TID 0000.0001) %MON exf_sflux_del2               =   2.4192594654232E-11
(PID.TID 0000.0001) %MON exf_uwind_max                =   2.0181541326284E+01
(PID.TID 0000.0001) %MON exf_uwind_min                =  -1.4772234529443E+01
(PID.TID 0000.0001) %MON exf_uwind_mean               =   2.4868106856776E+00
(PID.TID 0000.0001) %MON exf_uwind_sd                 =   6.6713267475263E+00
(PID.TID 0000.0001) %MON exf_uwind_del2               =   1.5415798963141E-03
(PID.TID 0000.0001) %MON exf_vwind_max                =   1.4669198603886E+01
(PID.TID 0000.0001) %MON exf_vwind_min                =  -1.2846789577325E+01
(PID.TID 0000.0001) %MON exf_vwind_mean               =   8.6712774828924E-01
(PID.TID 0000.0001) %MON exf_vwind_sd                 =   5.1867454436069E+00
(PID.TID 0000.0001) %MON exf_vwind_del2               =   1.1552352755570E-03
(PID.TID 0000.0001) %MON exf_wspeed_max               =   2.0282197017033E+01
(PID.TID 0000.0001) %MON exf_wspeed_min               =   1.1454758310791E-02
(PID.TID 0000.0001) %MON exf_wspeed_mean              =   7.7161904449408E+00
(PID.TID 0000.0001) %MON exf_wspeed_sd                =   4.3365276206538E+00
(PID.TID 0000.0001) %MON exf_wspeed_del2              =   1.9261884759486E-03
(PID.TID 0000.0001) %MON exf_atemp_max                =   2.9814925941584E+02
(PID.TID 0000.0001) %MON exf_atemp_min                =   2.7421894296331E+02
(PID.TID 0000.0001) %MON exf_atemp_mean               =   2.9066157111295E+02
(PID.TID 0000.0001) %MON exf_atemp_sd                 =   3.9477200203662E+00
(PID.TID 0000.0001) %MON exf_atemp_del2               =   3.7788865507996E-03
(PID.TID 0000.0001) %MON exf_aqh_max                  =   1.6731653621973E-02
(PID.TID 0000.0001) %MON exf_aqh_min                  =   2.7102318615487E-03
(PID.TID 0000.0001) %MON exf_aqh_mean                 =   9.4133265149604E-03
(PID.TID 0000.0001) %MON exf_aqh_sd                   =   2.8788045368042E-03
(PID.TID 0000.0001) %MON exf_aqh_del2                 =   2.0681454919988E-06
(PID.TID 0000.0001) %MON exf_lwflux_max               =   1.5421766115249E+02
(PID.TID 0000.0001) %MON exf_lwflux_min               =  -2.2891652848539E-01
(PID.TID 0000.0001) %MON exf_lwflux_mean              =   6.5330077593400E+01
(PID.TID 0000.0001) %MON exf_lwflux_sd                =   2.6491815492004E+01
(PID.TID 0000.0001) %MON exf_lwflux_del2              =   1.5044342980977E-02
(PID.TID 0000.0001) %MON exf_evap_max                 =   2.8941768037633E-07
(PID.TID 0000.0001) %MON exf_evap_min                 =  -9.9819867560482E-08
(PID.TID 0000.0001) %MON exf_evap_mean                =   5.9306138612485E-08
(PID.TID 0000.0001) %MON exf_evap_sd                  =   4.2159177639684E-08
(PID.TID 0000.0001) %MON exf_evap_del2                =   1.5845174025948E-11
(PID.TID 0000.0001) %MON exf_precip_max               =   1.9919087312383E-06
(PID.TID 0000.0001) %MON exf_precip_min               =   0.0000000000000E+00
(PID.TID 0000.0001) %MON exf_precip_mean              =   4.1573119575111E-08
(PID.TID 0000.0001) %MON exf_precip_sd                =   1.3847173982181E-07
(PID.TID 0000.0001) %MON exf_precip_del2              =   2.6746528133548E-11
(PID.TID 0000.0001) %MON exf_swflux_max               =   0.0000000000000E+00
(PID.TID 0000.0001) %MON exf_swflux_min               =   0.0000000000000E+00
(PID.TID 0000.0001) %MON exf_swflux_mean              =   0.0000000000000E+00
(PID.TID 0000.0001) %MON exf_swflux_sd                =   0.0000000000000E+00
(PID.TID 0000.0001) %MON exf_swflux_del2              =   0.0000000000000E+00
(PID.TID 0000.0001) %MON exf_swdown_max               =   0.0000000000000E+00
(PID.TID 0000.0001) %MON exf_swdown_min               =   0.0000000000000E+00
(PID.TID 0000.0001) %MON exf_swdown_mean              =   0.0000000000000E+00
(PID.TID 0000.0001) %MON exf_swdown_sd                =   0.0000000000000E+00
(PID.TID 0000.0001) %MON exf_swdown_del2              =   0.0000000000000E+00
(PID.TID 0000.0001) %MON exf_lwdown_max               =   4.1840604284666E+02
(PID.TID 0000.0001) %MON exf_lwdown_min               =   2.2445126639892E+02
(PID.TID 0000.0001) %MON exf_lwdown_mean              =   3.4969486171955E+02
(PID.TID 0000.0001) %MON exf_lwdown_sd                =   3.1528634700620E+01
(PID.TID 0000.0001) %MON exf_lwdown_del2              =   7.4860263185034E-02
(PID.TID 0000.0001) %MON exf_apressure_max            =   1.0281513960403E+05
(PID.TID 0000.0001) %MON exf_apressure_min            =   1.0001593693690E+05
(PID.TID 0000.0001) %MON exf_apressure_mean           =   1.0216918376558E+05
(PID.TID 0000.0001) %MON exf_apressure_sd             =   4.9886755904092E+02
(PID.TID 0000.0001) %MON exf_apressure_del2           =   2.1829042184908E+01
(PID.TID 0000.0001) %MON exf_runoff_max               =   4.4374791284855E-08
(PID.TID 0000.0001) %MON exf_runoff_min               =   0.0000000000000E+00
(PID.TID 0000.0001) %MON exf_runoff_mean              =   1.5884794052193E-09
(PID.TID 0000.0001) %MON exf_runoff_sd                =   5.3901957917178E-09
(PID.TID 0000.0001) %MON exf_runoff_del2              =   1.1512509897985E-12
(PID.TID 0000.0001) // =======================================================
(PID.TID 0000.0001) // End MONITOR EXF statistics
(PID.TID 0000.0001) // =======================================================
 cg2d: Sum(rhs),rhsMax =   1.97721784889041E+03  8.03981712264794E-02
(PID.TID 0000.0001)      cg2d_init_res =   1.43296654457745E+00
(PID.TID 0000.0001)      cg2d_iters(min,last) =      -1     311
(PID.TID 0000.0001)      cg2d_last_res =   6.83707791249240E-12
(PID.TID 0000.0001) // =======================================================
(PID.TID 0000.0001) // Begin MONITOR dynamic field statistics
(PID.TID 0000.0001) // =======================================================
(PID.TID 0000.0001) %MON time_tsnumber                =                    14
(PID.TID 0000.0001) %MON time_secondsf                =   3.3600000000000E+03
(PID.TID 0000.0001) %MON dynstat_eta_max              =   8.3779172696058E-01
(PID.TID 0000.0001) %MON dynstat_eta_min              =  -1.3071156663579E+00
(PID.TID 0000.0001) %MON dynstat_eta_mean             =  -6.7239447273600E-02
(PID.TID 0000.0001) %MON dynstat_eta_sd               =   2.7769796908875E-01
(PID.TID 0000.0001) %MON dynstat_eta_del2             =   2.4228394222511E-06
(PID.TID 0000.0001) %MON dynstat_uvel_max             =   1.2683488810509E+00
(PID.TID 0000.0001) %MON dynstat_uvel_min             =  -8.9372546887416E-01
(PID.TID 0000.0001) %MON dynstat_uvel_mean            =   1.2825853708864E-03
(PID.TID 0000.0001) %MON dynstat_uvel_sd              =   5.2294479211193E-02
(PID.TID 0000.0001) %MON dynstat_uvel_del2            =   5.4565757554275E-07
(PID.TID 0000.0001) %MON dynstat_vvel_max             =   2.6695680775817E+00
(PID.TID 0000.0001) %MON dynstat_vvel_min             =  -9.1690303215892E-01
(PID.TID 0000.0001) %MON dynstat_vvel_mean            =  -4.8021278643726E-03
(PID.TID 0000.0001) %MON dynstat_vvel_sd              =   4.9452117471126E-02
(PID.TID 0000.0001) %MON dynstat_vvel_del2            =   4.9928078427400E-07
(PID.TID 0000.0001) %MON dynstat_wvel_max             =   3.8248954066084E-02
(PID.TID 0000.0001) %MON dynstat_wvel_min             =  -3.2881509479968E-02
(PID.TID 0000.0001) %MON dynstat_wvel_mean            =  -1.8215462753851E-05
(PID.TID 0000.0001) %MON dynstat_wvel_sd              =   6.1030584790012E-04
(PID.TID 0000.0001) %MON dynstat_wvel_del2            =   7.0541314495874E-08
(PID.TID 0000.0001) %MON dynstat_theta_max            =   2.6147321990089E+01
(PID.TID 0000.0001) %MON dynstat_theta_min            =   1.4688654665227E+00
(PID.TID 0000.0001) %MON dynstat_theta_mean           =   5.5098994449902E+00
(PID.TID 0000.0001) %MON dynstat_theta_sd             =   4.7733187945063E+00
(PID.TID 0000.0001) %MON dynstat_theta_del2           =   4.0342202232269E-06
(PID.TID 0000.0001) %MON dynstat_salt_max             =   3.9143566339354E+01
(PID.TID 0000.0001) %MON dynstat_salt_min             =   3.3101325428004E+01
(PID.TID 0000.0001) %MON dynstat_salt_mean            =   3.5173366907033E+01
(PID.TID 0000.0001) %MON dynstat_salt_sd              =   3.7891597544487E-01
(PID.TID 0000.0001) %MON dynstat_salt_del2            =   5.3056206591634E-07
(PID.TID 0000.0001) %MON dynstat_sst_max              =   2.6143264109205E+01
(PID.TID 0000.0001) %MON dynstat_sst_min              =   3.8936658346573E+00
(PID.TID 0000.0001) %MON dynstat_sst_mean             =   1.9635343687790E+01
(PID.TID 0000.0001) %MON dynstat_sst_sd               =   3.6392498954773E+00
(PID.TID 0000.0001) %MON dynstat_sst_del2             =   1.9307626517200E-05
(PID.TID 0000.0001) %MON dynstat_sss_max              =   3.7336367531109E+01
(PID.TID 0000.0001) %MON dynstat_sss_min              =   3.3101325428004E+01
(PID.TID 0000.0001) %MON dynstat_sss_mean             =   3.5868447988010E+01
(PID.TID 0000.0001) %MON dynstat_sss_sd               =   4.8717680668758E-01
(PID.TID 0000.0001) %MON dynstat_sss_del2             =   4.9055852266676E-06
(PID.TID 0000.0001) %MON forcing_qnet_max             =   1.2122128875495E+03
(PID.TID 0000.0001) %MON forcing_qnet_min             =  -3.0429750742964E+02
(PID.TID 0000.0001) %MON forcing_qnet_mean            =   2.4175578352841E+02
(PID.TID 0000.0001) %MON forcing_qnet_sd              =   1.4269849974462E+02
(PID.TID 0000.0001) %MON forcing_qnet_del2            =   1.6788663241493E-03
(PID.TID 0000.0001) %MON forcing_qsw_max              =   0.0000000000000E+00
(PID.TID 0000.0001) %MON forcing_qsw_min              =   0.0000000000000E+00
(PID.TID 0000.0001) %MON forcing_qsw_mean             =   0.0000000000000E+00
(PID.TID 0000.0001) %MON forcing_qsw_sd               =   0.0000000000000E+00
(PID.TID 0000.0001) %MON forcing_qsw_del2             =   0.0000000000000E+00
(PID.TID 0000.0001) %MON forcing_empmr_max            =   2.5979347819336E-04
(PID.TID 0000.0001) %MON forcing_empmr_min            =  -1.8124518819560E-03
(PID.TID 0000.0001) %MON forcing_empmr_mean           =   1.6144539632155E-05
(PID.TID 0000.0001) %MON forcing_empmr_sd             =   1.3269601606293E-04
(PID.TID 0000.0001) %MON forcing_empmr_del2           =   2.6586946357526E-09
(PID.TID 0000.0001) %MON forcing_fu_max               =   9.0458287655316E-01
(PID.TID 0000.0001) %MON forcing_fu_min               =  -3.9586193097749E-01
(PID.TID 0000.0001) %MON forcing_fu_mean              =   6.4114219952532E-02
(PID.TID 0000.0001) %MON forcing_fu_sd                =   1.5584028464195E-01
(PID.TID 0000.0001) %MON forcing_fu_del2              =   3.9238112027807E-07
(PID.TID 0000.0001) %MON forcing_fv_max               =   4.0588015801613E-01
(PID.TID 0000.0001) %MON forcing_fv_min               =  -5.7367195909844E-01
(PID.TID 0000.0001) %MON forcing_fv_mean              =   1.1056052788509E-02
(PID.TID 0000.0001) %MON forcing_fv_sd                =   1.0245211823402E-01
(PID.TID 0000.0001) %MON forcing_fv_del2              =   3.0587478390639E-07
(PID.TID 0000.0001) %MON trAdv_CFL_u_max              =   7.6951694227392E-02
(PID.TID 0000.0001) %MON trAdv_CFL_v_max              =   1.6867241204257E-01
(PID.TID 0000.0001) %MON trAdv_CFL_w_max              =   5.3103979189669E-01
(PID.TID 0000.0001) %MON advcfl_uvel_max              =   7.6951693179625E-02
(PID.TID 0000.0001) %MON advcfl_vvel_max              =   1.6872148920127E-01
(PID.TID 0000.0001) %MON advcfl_wvel_max              =   5.2218912869841E-01
(PID.TID 0000.0001) %MON advcfl_W_hf_max              =   5.3103979189669E-01
(PID.TID 0000.0001) %MON pe_b_mean                    =  -1.5354528242812E-03
(PID.TID 0000.0001) %MON ke_max                       =   3.2533710466924E+00
(PID.TID 0000.0001) %MON ke_mean                      =   2.5832862225051E-03
(PID.TID 0000.0001) %MON ke_vol                       =   4.5818637279723E+16
(PID.TID 0000.0001) %MON vort_r_min                   =  -5.1680308216434E-04
(PID.TID 0000.0001) %MON vort_r_max                   =   7.8014138703174E-04
(PID.TID 0000.0001) %MON vort_a_mean                  =   8.2147620580602E-05
(PID.TID 0000.0001) %MON vort_a_sd                    =   1.0155281386329E-05
(PID.TID 0000.0001) %MON vort_p_mean                  =   8.4848841807268E-05
(PID.TID 0000.0001) %MON vort_p_sd                    =   3.4985894947486E-05
(PID.TID 0000.0001) %MON surfExpan_theta_mean         =  -4.7544280222053E-04
(PID.TID 0000.0001) %MON surfExpan_salt_mean          =  -1.1336065229896E-03
(PID.TID 0000.0001) // =======================================================
(PID.TID 0000.0001) // End MONITOR dynamic field statistics
(PID.TID 0000.0001) // =======================================================
(PID.TID 0000.0001) // =======================================================
(PID.TID 0000.0001) // Begin OBCS MONITOR field statistics
(PID.TID 0000.0001) // =======================================================
(PID.TID 0000.0001) %MON obc_N_vVel_max               =   6.9406954362584E-01
(PID.TID 0000.0001) %MON obc_N_vVel_min               =  -3.2488788876920E-01
(PID.TID 0000.0001) %MON obc_N_vVel_mean              =   1.3301629419791E-02
(PID.TID 0000.0001) %MON obc_N_vVel_sd                =   6.4519750541269E-02
(PID.TID 0000.0001) %MON obc_N_vVel_Int               =   1.9041394863546E+08
(PID.TID 0000.0001) %MON obc_S_vVel_max               =   2.6695680775817E+00
(PID.TID 0000.0001) %MON obc_S_vVel_min               =  -2.6321008674783E-01
(PID.TID 0000.0001) %MON obc_S_vVel_mean              =  -5.5958545034757E-03
(PID.TID 0000.0001) %MON obc_S_vVel_sd                =   3.6491707287936E-02
(PID.TID 0000.0001) %MON obc_S_vVel_Int               =  -1.7035403723358E+08
(PID.TID 0000.0001) %MON obc_N_theta_max              =   1.6389627614545E+01
(PID.TID 0000.0001) %MON obc_N_theta_min              =   1.8895914139009E+00
(PID.TID 0000.0001) %MON obc_N_theta_mean             =   5.1588771237882E+00
(PID.TID 0000.0001) %MON obc_N_theta_sd               =   3.4826038600191E+00
(PID.TID 0000.0001) %MON obc_S_theta_max              =   2.5543502825894E+01
(PID.TID 0000.0001) %MON obc_S_theta_min              =   1.4633011889082E+00
(PID.TID 0000.0001) %MON obc_S_theta_mean             =   5.4595465098672E+00
(PID.TID 0000.0001) %MON obc_S_theta_sd               =   5.3558828399123E+00
(PID.TID 0000.0001) %MON obc_N_salt_max               =   3.5910861930873E+01
(PID.TID 0000.0001) %MON obc_N_salt_min               =   3.3295091106912E+01
(PID.TID 0000.0001) %MON obc_N_salt_mean              =   3.5114560172536E+01
(PID.TID 0000.0001) %MON obc_N_salt_sd                =   3.0984766011023E-01
(PID.TID 0000.0001) %MON obc_S_salt_max               =   3.7318250249244E+01
(PID.TID 0000.0001) %MON obc_S_salt_min               =   3.4844695044902E+01
(PID.TID 0000.0001) %MON obc_S_salt_mean              =   3.5168371932001E+01
(PID.TID 0000.0001) %MON obc_S_salt_sd                =   4.5716619309678E-01
(PID.TID 0000.0001) // =======================================================
(PID.TID 0000.0001) // End OBCS MONITOR field statistics
(PID.TID 0000.0001) // =======================================================
(PID.TID 0000.0001) // =======================================================
(PID.TID 0000.0001) // Begin MONITOR EXF statistics
(PID.TID 0000.0001) // =======================================================
(PID.TID 0000.0001) %MON exf_tsnumber                 =                    14
(PID.TID 0000.0001) %MON exf_time_sec                 =   3.3600000000000E+03
(PID.TID 0000.0001) %MON exf_ustress_max              =   9.1892308999252E-01
(PID.TID 0000.0001) %MON exf_ustress_min              =  -3.9384928676750E-01
(PID.TID 0000.0001) %MON exf_ustress_mean             =   6.4294920234692E-02
(PID.TID 0000.0001) %MON exf_ustress_sd               =   1.5618116703547E-01
(PID.TID 0000.0001) %MON exf_ustress_del2             =   4.4981722786594E-07
(PID.TID 0000.0001) %MON exf_vstress_max              =   4.1134604406250E-01
(PID.TID 0000.0001) %MON exf_vstress_min              =  -5.7072184278726E-01
(PID.TID 0000.0001) %MON exf_vstress_mean             =   1.1139019568674E-02
(PID.TID 0000.0001) %MON exf_vstress_sd               =   1.0269718439008E-01
(PID.TID 0000.0001) %MON exf_vstress_del2             =   3.4963167654755E-07
(PID.TID 0000.0001) %MON exf_hflux_max                =   1.2009100725072E+03
(PID.TID 0000.0001) %MON exf_hflux_min                =  -3.0215998288943E+02
(PID.TID 0000.0001) %MON exf_hflux_mean               =   2.3980268514125E+02
(PID.TID 0000.0001) %MON exf_hflux_sd                 =   1.4134322270047E+02
(PID.TID 0000.0001) %MON exf_hflux_del2               =   6.0719461462778E-02
(PID.TID 0000.0001) %MON exf_sflux_max                =   2.6132857922453E-07
(PID.TID 0000.0001) %MON exf_sflux_min                =  -1.8312663387898E-06
(PID.TID 0000.0001) %MON exf_sflux_mean               =   1.5932239283246E-08
(PID.TID 0000.0001) %MON exf_sflux_sd                 =   1.3331539960408E-07
(PID.TID 0000.0001) %MON exf_sflux_del2               =   2.4550355536753E-11
(PID.TID 0000.0001) %MON exf_uwind_max                =   2.0303345613901E+01
(PID.TID 0000.0001) %MON exf_uwind_min                =  -1.4750836693054E+01
(PID.TID 0000.0001) %MON exf_uwind_mean               =   2.4887747264285E+00
(PID.TID 0000.0001) %MON exf_uwind_sd                 =   6.6743428070438E+00
(PID.TID 0000.0001) %MON exf_uwind_del2               =   1.5419889740495E-03
(PID.TID 0000.0001) %MON exf_vwind_max                =   1.4760466644315E+01
(PID.TID 0000.0001) %MON exf_vwind_min                =  -1.2875776321876E+01
(PID.TID 0000.0001) %MON exf_vwind_mean               =   8.6874466686997E-01
(PID.TID 0000.0001) %MON exf_vwind_sd                 =   5.1931042581756E+00
(PID.TID 0000.0001) %MON exf_vwind_del2               =   1.1569552204536E-03
(PID.TID 0000.0001) %MON exf_wspeed_max               =   2.0407414124189E+01
(PID.TID 0000.0001) %MON exf_wspeed_min               =   1.4873173935843E-02
(PID.TID 0000.0001) %MON exf_wspeed_mean              =   7.7203392268666E+00
(PID.TID 0000.0001) %MON exf_wspeed_sd                =   4.3428404183721E+00
(PID.TID 0000.0001) %MON exf_wspeed_del2              =   1.9275340121473E-03
(PID.TID 0000.0001) %MON exf_atemp_max                =   2.9814706212742E+02
(PID.TID 0000.0001) %MON exf_atemp_min                =   2.7419334175467E+02
(PID.TID 0000.0001) %MON exf_atemp_mean               =   2.9065844990676E+02
(PID.TID 0000.0001) %MON exf_atemp_sd                 =   3.9488923540295E+00
(PID.TID 0000.0001) %MON exf_atemp_del2               =   3.7783032338168E-03
(PID.TID 0000.0001) %MON exf_aqh_max                  =   1.6724667321099E-02
(PID.TID 0000.0001) %MON exf_aqh_min                  =   2.7079371637848E-03
(PID.TID 0000.0001) %MON exf_aqh_mean                 =   9.4121383621463E-03
(PID.TID 0000.0001) %MON exf_aqh_sd                   =   2.8803678201485E-03
(PID.TID 0000.0001) %MON exf_aqh_del2                 =   2.0679505252326E-06
(PID.TID 0000.0001) %MON exf_lwflux_max               =   1.5448832566510E+02
(PID.TID 0000.0001) %MON exf_lwflux_min               =  -2.6002175021629E-01
(PID.TID 0000.0001) %MON exf_lwflux_mean              =   6.5312514485661E+01
(PID.TID 0000.0001) %MON exf_lwflux_sd                =   2.6486984030266E+01
(PID.TID 0000.0001) %MON exf_lwflux_del2              =   1.5042066601765E-02
(PID.TID 0000.0001) %MON exf_evap_max                 =   2.9167197009972E-07
(PID.TID 0000.0001) %MON exf_evap_min                 =  -1.0072235588169E-07
(PID.TID 0000.0001) %MON exf_evap_mean                =   5.9336973535804E-08
(PID.TID 0000.0001) %MON exf_evap_sd                  =   4.2220018311965E-08
(PID.TID 0000.0001) %MON exf_evap_del2                =   1.5856285252996E-11
(PID.TID 0000.0001) %MON exf_precip_max               =   2.0113592581988E-06
(PID.TID 0000.0001) %MON exf_precip_min               =   0.0000000000000E+00
(PID.TID 0000.0001) %MON exf_precip_mean              =   4.1816254847339E-08
(PID.TID 0000.0001) %MON exf_precip_sd                =   1.3924115911834E-07
(PID.TID 0000.0001) %MON exf_precip_del2              =   2.7194403973366E-11
(PID.TID 0000.0001) %MON exf_swflux_max               =   0.0000000000000E+00
(PID.TID 0000.0001) %MON exf_swflux_min               =   0.0000000000000E+00
(PID.TID 0000.0001) %MON exf_swflux_mean              =   0.0000000000000E+00
(PID.TID 0000.0001) %MON exf_swflux_sd                =   0.0000000000000E+00
(PID.TID 0000.0001) %MON exf_swflux_del2              =   0.0000000000000E+00
(PID.TID 0000.0001) %MON exf_swdown_max               =   0.0000000000000E+00
(PID.TID 0000.0001) %MON exf_swdown_min               =   0.0000000000000E+00
(PID.TID 0000.0001) %MON exf_swdown_mean              =   0.0000000000000E+00
(PID.TID 0000.0001) %MON exf_swdown_sd                =   0.0000000000000E+00
(PID.TID 0000.0001) %MON exf_swdown_del2              =   0.0000000000000E+00
(PID.TID 0000.0001) %MON exf_lwdown_max               =   4.1843716545593E+02
(PID.TID 0000.0001) %MON exf_lwdown_min               =   2.2422663445087E+02
(PID.TID 0000.0001) %MON exf_lwdown_mean              =   3.4970935287255E+02
(PID.TID 0000.0001) %MON exf_lwdown_sd                =   3.1487341464055E+01
(PID.TID 0000.0001) %MON exf_lwdown_del2              =   7.4859498216783E-02
(PID.TID 0000.0001) %MON exf_apressure_max            =   1.0281834697520E+05
(PID.TID 0000.0001) %MON exf_apressure_min            =   1.0001465908832E+05
(PID.TID 0000.0001) %MON exf_apressure_mean           =   1.0216996107213E+05
(PID.TID 0000.0001) %MON exf_apressure_sd             =   4.9898322972270E+02
(PID.TID 0000.0001) %MON exf_apressure_del2           =   2.1829211407614E+01
(PID.TID 0000.0001) %MON exf_runoff_max               =   4.4374791284855E-08
(PID.TID 0000.0001) %MON exf_runoff_min               =   0.0000000000000E+00
(PID.TID 0000.0001) %MON exf_runoff_mean              =   1.5884794052193E-09
(PID.TID 0000.0001) %MON exf_runoff_sd                =   5.3901957917178E-09
(PID.TID 0000.0001) %MON exf_runoff_del2              =   1.1512509897985E-12
(PID.TID 0000.0001) // =======================================================
(PID.TID 0000.0001) // End MONITOR EXF statistics
(PID.TID 0000.0001) // =======================================================
 cg2d: Sum(rhs),rhsMax =   2.21429472337916E+03  7.90475322378013E-02
(PID.TID 0000.0001)      cg2d_init_res =   1.46733397463023E+00
(PID.TID 0000.0001)      cg2d_iters(min,last) =      -1     311
(PID.TID 0000.0001)      cg2d_last_res =   6.54431635723654E-12
(PID.TID 0000.0001) // =======================================================
(PID.TID 0000.0001) // Begin MONITOR dynamic field statistics
(PID.TID 0000.0001) // =======================================================
(PID.TID 0000.0001) %MON time_tsnumber                =                    15
(PID.TID 0000.0001) %MON time_secondsf                =   3.6000000000000E+03
(PID.TID 0000.0001) %MON dynstat_eta_max              =   8.2403776515457E-01
(PID.TID 0000.0001) %MON dynstat_eta_min              =  -1.3851988835372E+00
(PID.TID 0000.0001) %MON dynstat_eta_mean             =  -7.5301744511571E-02
(PID.TID 0000.0001) %MON dynstat_eta_sd               =   2.8536060635646E-01
(PID.TID 0000.0001) %MON dynstat_eta_del2             =   2.4885302045243E-06
(PID.TID 0000.0001) %MON dynstat_uvel_max             =   1.2641970994042E+00
(PID.TID 0000.0001) %MON dynstat_uvel_min             =  -9.3134108655286E-01
(PID.TID 0000.0001) %MON dynstat_uvel_mean            =   1.0694118031019E-03
(PID.TID 0000.0001) %MON dynstat_uvel_sd              =   5.2315859352585E-02
(PID.TID 0000.0001) %MON dynstat_uvel_del2            =   5.5361577123416E-07
(PID.TID 0000.0001) %MON dynstat_vvel_max             =   2.7285896357225E+00
(PID.TID 0000.0001) %MON dynstat_vvel_min             =  -9.1572079176167E-01
(PID.TID 0000.0001) %MON dynstat_vvel_mean            =  -4.9481140042236E-03
(PID.TID 0000.0001) %MON dynstat_vvel_sd              =   4.9502913582588E-02
(PID.TID 0000.0001) %MON dynstat_vvel_del2            =   5.0733261785212E-07
(PID.TID 0000.0001) %MON dynstat_wvel_max             =   3.9583494982575E-02
(PID.TID 0000.0001) %MON dynstat_wvel_min             =  -3.3065701528522E-02
(PID.TID 0000.0001) %MON dynstat_wvel_mean            =  -1.9261330028615E-05
(PID.TID 0000.0001) %MON dynstat_wvel_sd              =   6.1197635481162E-04
(PID.TID 0000.0001) %MON dynstat_wvel_del2            =   7.0440158312530E-08
(PID.TID 0000.0001) %MON dynstat_theta_max            =   2.6148720336969E+01
(PID.TID 0000.0001) %MON dynstat_theta_min            =   1.4688656793672E+00
(PID.TID 0000.0001) %MON dynstat_theta_mean           =   5.5099145153967E+00
(PID.TID 0000.0001) %MON dynstat_theta_sd             =   4.7733233785151E+00
(PID.TID 0000.0001) %MON dynstat_theta_del2           =   4.0347624202458E-06
(PID.TID 0000.0001) %MON dynstat_salt_max             =   3.9138981438885E+01
(PID.TID 0000.0001) %MON dynstat_salt_min             =   3.3102476499358E+01
(PID.TID 0000.0001) %MON dynstat_salt_mean            =   3.5173367396769E+01
(PID.TID 0000.0001) %MON dynstat_salt_sd              =   3.7891702582954E-01
(PID.TID 0000.0001) %MON dynstat_salt_del2            =   5.3225509619732E-07
(PID.TID 0000.0001) %MON dynstat_sst_max              =   2.6144531881367E+01
(PID.TID 0000.0001) %MON dynstat_sst_min              =   3.8797978323611E+00
(PID.TID 0000.0001) %MON dynstat_sst_mean             =   1.9634729302213E+01
(PID.TID 0000.0001) %MON dynstat_sst_sd               =   3.6392843739413E+00
(PID.TID 0000.0001) %MON dynstat_sst_del2             =   1.9363016775283E-05
(PID.TID 0000.0001) %MON dynstat_sss_max              =   3.7336435849173E+01
(PID.TID 0000.0001) %MON dynstat_sss_min              =   3.3102476499358E+01
(PID.TID 0000.0001) %MON dynstat_sss_mean             =   3.5868473513356E+01
(PID.TID 0000.0001) %MON dynstat_sss_sd               =   4.8717081565798E-01
(PID.TID 0000.0001) %MON dynstat_sss_del2             =   4.9000988336353E-06
(PID.TID 0000.0001) %MON forcing_qnet_max             =   1.2194802313881E+03
(PID.TID 0000.0001) %MON forcing_qnet_min             =  -3.0715420669009E+02
(PID.TID 0000.0001) %MON forcing_qnet_mean            =   2.4184365448892E+02
(PID.TID 0000.0001) %MON forcing_qnet_sd              =   1.4296057805984E+02
(PID.TID 0000.0001) %MON forcing_qnet_del2            =   1.6848087478940E-03
(PID.TID 0000.0001) %MON forcing_qsw_max              =   0.0000000000000E+00
(PID.TID 0000.0001) %MON forcing_qsw_min              =   0.0000000000000E+00
(PID.TID 0000.0001) %MON forcing_qsw_mean             =   0.0000000000000E+00
(PID.TID 0000.0001) %MON forcing_qsw_sd               =   0.0000000000000E+00
(PID.TID 0000.0001) %MON forcing_qsw_del2             =   0.0000000000000E+00
(PID.TID 0000.0001) %MON forcing_empmr_max            =   2.6132857922453E-04
(PID.TID 0000.0001) %MON forcing_empmr_min            =  -1.8312663387898E-03
(PID.TID 0000.0001) %MON forcing_empmr_mean           =   1.5932239283246E-05
(PID.TID 0000.0001) %MON forcing_empmr_sd             =   1.3331539960408E-04
(PID.TID 0000.0001) %MON forcing_empmr_del2           =   2.6146110159338E-09
(PID.TID 0000.0001) %MON forcing_fu_max               =   9.1866930480227E-01
(PID.TID 0000.0001) %MON forcing_fu_min               =  -3.9384078722873E-01
(PID.TID 0000.0001) %MON forcing_fu_mean              =   6.4357320299482E-02
(PID.TID 0000.0001) %MON forcing_fu_sd                =   1.5624196029752E-01
(PID.TID 0000.0001) %MON forcing_fu_del2              =   4.1196840052765E-07
(PID.TID 0000.0001) %MON forcing_fv_max               =   4.1115948296794E-01
(PID.TID 0000.0001) %MON forcing_fv_min               =  -5.7566108388992E-01
(PID.TID 0000.0001) %MON forcing_fv_mean              =   1.1122692701130E-02
(PID.TID 0000.0001) %MON forcing_fv_sd                =   1.0282939210029E-01
(PID.TID 0000.0001) %MON forcing_fv_del2              =   3.2648535070518E-07
(PID.TID 0000.0001) %MON trAdv_CFL_u_max              =   7.6699802467526E-02
(PID.TID 0000.0001) %MON trAdv_CFL_v_max              =   1.7240159529799E-01
(PID.TID 0000.0001) %MON trAdv_CFL_w_max              =   5.3231210733093E-01
(PID.TID 0000.0001) %MON advcfl_uvel_max              =   7.6699801423189E-02
(PID.TID 0000.0001) %MON advcfl_vvel_max              =   1.7245175750502E-01
(PID.TID 0000.0001) %MON advcfl_wvel_max              =   5.2344023887542E-01
(PID.TID 0000.0001) %MON advcfl_W_hf_max              =   5.3231210733093E-01
(PID.TID 0000.0001) %MON pe_b_mean                    =  -1.7254471504794E-03
(PID.TID 0000.0001) %MON ke_max                       =   3.4167188092116E+00
(PID.TID 0000.0001) %MON ke_mean                      =   2.5873468471707E-03
(PID.TID 0000.0001) %MON ke_vol                       =   4.5818637279723E+16
(PID.TID 0000.0001) %MON vort_r_min                   =  -5.3488768589912E-04
(PID.TID 0000.0001) %MON vort_r_max                   =   7.9657621365416E-04
(PID.TID 0000.0001) %MON vort_a_mean                  =   8.2147619744351E-05
(PID.TID 0000.0001) %MON vort_a_sd                    =   1.0158571635147E-05
(PID.TID 0000.0001) %MON vort_p_mean                  =   8.4848840943519E-05
(PID.TID 0000.0001) %MON vort_p_sd                    =   3.4989736405492E-05
(PID.TID 0000.0001) %MON surfExpan_theta_mean         =  -5.1265274106383E-04
(PID.TID 0000.0001) %MON surfExpan_salt_mean          =  -1.1938516708025E-03
(PID.TID 0000.0001) // =======================================================
(PID.TID 0000.0001) // End MONITOR dynamic field statistics
(PID.TID 0000.0001) // =======================================================
(PID.TID 0000.0001) // =======================================================
(PID.TID 0000.0001) // Begin OBCS MONITOR field statistics
(PID.TID 0000.0001) // =======================================================
(PID.TID 0000.0001) %MON obc_N_vVel_max               =   6.9386348641532E-01
(PID.TID 0000.0001) %MON obc_N_vVel_min               =  -3.2526955108089E-01
(PID.TID 0000.0001) %MON obc_N_vVel_mean              =   1.3207329893573E-02
(PID.TID 0000.0001) %MON obc_N_vVel_sd                =   6.4494935757103E-02
(PID.TID 0000.0001) %MON obc_N_vVel_Int               =   1.8906404295287E+08
(PID.TID 0000.0001) %MON obc_S_vVel_max               =   2.7285896357225E+00
(PID.TID 0000.0001) %MON obc_S_vVel_min               =  -2.6325457576441E-01
(PID.TID 0000.0001) %MON obc_S_vVel_mean              =  -6.2604081018520E-03
(PID.TID 0000.0001) %MON obc_S_vVel_sd                =   3.6578004715070E-02
(PID.TID 0000.0001) %MON obc_S_vVel_Int               =  -1.9058497575623E+08
(PID.TID 0000.0001) %MON obc_N_theta_max              =   1.6389539512358E+01
(PID.TID 0000.0001) %MON obc_N_theta_min              =   1.8895914629663E+00
(PID.TID 0000.0001) %MON obc_N_theta_mean             =   5.1588697396382E+00
(PID.TID 0000.0001) %MON obc_N_theta_sd               =   3.4825945703429E+00
(PID.TID 0000.0001) %MON obc_S_theta_max              =   2.5543400077115E+01
(PID.TID 0000.0001) %MON obc_S_theta_min              =   1.4633015851955E+00
(PID.TID 0000.0001) %MON obc_S_theta_mean             =   5.4595457048426E+00
(PID.TID 0000.0001) %MON obc_S_theta_sd               =   5.3558789690521E+00
(PID.TID 0000.0001) %MON obc_N_salt_max               =   3.5910861522510E+01
(PID.TID 0000.0001) %MON obc_N_salt_min               =   3.3295096609545E+01
(PID.TID 0000.0001) %MON obc_N_salt_mean              =   3.5114559876550E+01
(PID.TID 0000.0001) %MON obc_N_salt_sd                =   3.0984754113882E-01
(PID.TID 0000.0001) %MON obc_S_salt_max               =   3.7318243364860E+01
(PID.TID 0000.0001) %MON obc_S_salt_min               =   3.4844695097122E+01
(PID.TID 0000.0001) %MON obc_S_salt_mean              =   3.5168371860084E+01
(PID.TID 0000.0001) %MON obc_S_salt_sd                =   4.5716584210563E-01
(PID.TID 0000.0001) // =======================================================
(PID.TID 0000.0001) // End OBCS MONITOR field statistics
(PID.TID 0000.0001) // =======================================================
 Computing Diagnostic #     23  ETAN         Counter:      15   Parms: SM      M1      
 Computing Diagnostic #     80  oceTAUX      Counter:      15   Parms: UU      U1      
           Vector  Mate for  oceTAUX      Diagnostic #     81  oceTAUY  exists 
 Computing Diagnostic #     81  oceTAUY      Counter:      15   Parms: VV      U1      
           Vector  Mate for  oceTAUY      Diagnostic #     80  oceTAUX  exists 
 Computing Diagnostic #    185  EXFuwind     Counter:      15   Parms: UM      U1      
 Computing Diagnostic #    186  EXFvwind     Counter:      15   Parms: VM      U1      
 Computing Diagnostic #     26  THETA        Counter:      15   Parms: SMR     MR      
 Computing Diagnostic #     27  SALT         Counter:      15   Parms: SMR     MR      
 Computing Diagnostic #     30  UVEL         Counter:      15   Parms: UUR     MR      
           Vector  Mate for  UVEL         Diagnostic #     31  VVEL     exists 
 Computing Diagnostic #     31  VVEL         Counter:      15   Parms: VVR     MR      
           Vector  Mate for  VVEL         Diagnostic #     30  UVEL     exists 
 Computing Diagnostic #     32  WVEL         Counter:      15   Parms: WM      LR      
 Computing Diagnostic #     36  UVELSQ       Counter:      15   Parms: UURP    MR      
           Vector  Mate for  UVELSQ       Diagnostic #     37  VVELSQ   exists 
 Computing Diagnostic #     37  VVELSQ       Counter:      15   Parms: VVRP    MR      
           Vector  Mate for  VVELSQ       Diagnostic #     36  UVELSQ   exists 
 Computing Diagnostic #     52  WTHMASS      Counter:      15   Parms: WM      LR      
 Computing Diagnostic #     55  WSLTMASS     Counter:      15   Parms: WM      LR      
(PID.TID 0000.0001) %CHECKPOINT        15 ckptA
(PID.TID 0000.0001)   Seconds in section "ALL                    [THE_MODEL_MAIN]":
(PID.TID 0000.0001)           User time:   60.8926547765732
(PID.TID 0000.0001)         System time:  0.000000000000000E+000
(PID.TID 0000.0001)     Wall clock time:   115.282284975052
(PID.TID 0000.0001)          No. starts:           1
(PID.TID 0000.0001)           No. stops:           1
(PID.TID 0000.0001)   Seconds in section "INITIALISE_FIXED       [THE_MODEL_MAIN]":
(PID.TID 0000.0001)           User time:   18.7980849742889
(PID.TID 0000.0001)         System time:  0.000000000000000E+000
(PID.TID 0000.0001)     Wall clock time:   54.4765331745148
(PID.TID 0000.0001)          No. starts:           1
(PID.TID 0000.0001)           No. stops:           1
(PID.TID 0000.0001)   Seconds in section "THE_MAIN_LOOP          [THE_MODEL_MAIN]":
(PID.TID 0000.0001)           User time:   42.0945358276367
(PID.TID 0000.0001)         System time:  0.000000000000000E+000
(PID.TID 0000.0001)     Wall clock time:   60.8057219982147
(PID.TID 0000.0001)          No. starts:           1
(PID.TID 0000.0001)           No. stops:           1
(PID.TID 0000.0001)   Seconds in section "INITIALISE_VARIA    [THE_MAIN_LOOP]":
(PID.TID 0000.0001)           User time:   7.61852455139160
(PID.TID 0000.0001)         System time:  0.000000000000000E+000
(PID.TID 0000.0001)     Wall clock time:   13.0173850059509
(PID.TID 0000.0001)          No. starts:           1
(PID.TID 0000.0001)           No. stops:           1
(PID.TID 0000.0001)   Seconds in section "MAIN LOOP           [THE_MAIN_LOOP]":
(PID.TID 0000.0001)           User time:   34.4759902954102
(PID.TID 0000.0001)         System time:  0.000000000000000E+000
(PID.TID 0000.0001)     Wall clock time:   47.7883150577545
(PID.TID 0000.0001)          No. starts:           1
(PID.TID 0000.0001)           No. stops:           1
(PID.TID 0000.0001)   Seconds in section "MAIN_DO_LOOP        [THE_MAIN_LOOP]":
(PID.TID 0000.0001)           User time:   34.4758758544922
(PID.TID 0000.0001)         System time:  0.000000000000000E+000
(PID.TID 0000.0001)     Wall clock time:   47.7881994247437
(PID.TID 0000.0001)          No. starts:          15
(PID.TID 0000.0001)           No. stops:          15
(PID.TID 0000.0001)   Seconds in section "FORWARD_STEP        [MAIN_DO_LOOP]":
(PID.TID 0000.0001)           User time:   34.4756336212158
(PID.TID 0000.0001)         System time:  0.000000000000000E+000
(PID.TID 0000.0001)     Wall clock time:   47.7879436016083
(PID.TID 0000.0001)          No. starts:          15
(PID.TID 0000.0001)           No. stops:          15
(PID.TID 0000.0001)   Seconds in section "DO_STATEVARS_DIAGS  [FORWARD_STEP]":
(PID.TID 0000.0001)           User time:  0.905187606811523
(PID.TID 0000.0001)         System time:  0.000000000000000E+000
(PID.TID 0000.0001)     Wall clock time:  0.909744977951050
(PID.TID 0000.0001)          No. starts:          45
(PID.TID 0000.0001)           No. stops:          45
(PID.TID 0000.0001)   Seconds in section "LOAD_FIELDS_DRIVER  [FORWARD_STEP]":
(PID.TID 0000.0001)           User time:  0.299161911010742
(PID.TID 0000.0001)         System time:  0.000000000000000E+000
(PID.TID 0000.0001)     Wall clock time:  0.955014228820801
(PID.TID 0000.0001)          No. starts:          15
(PID.TID 0000.0001)           No. stops:          15
(PID.TID 0000.0001)   Seconds in section "EXF_GETFORCING     [LOAD_FLDS_DRIVER]":
(PID.TID 0000.0001)           User time:  0.298784255981445
(PID.TID 0000.0001)         System time:  0.000000000000000E+000
(PID.TID 0000.0001)     Wall clock time:  0.954640626907349
(PID.TID 0000.0001)          No. starts:          15
(PID.TID 0000.0001)           No. stops:          15
(PID.TID 0000.0001)   Seconds in section "EXTERNAL_FLDS_LOAD [LOAD_FLDS_DRIVER]":
(PID.TID 0000.0001)           User time:  9.918212890625000E-005
(PID.TID 0000.0001)         System time:  0.000000000000000E+000
(PID.TID 0000.0001)     Wall clock time:  9.036064147949219E-005
(PID.TID 0000.0001)          No. starts:          15
(PID.TID 0000.0001)           No. stops:          15
(PID.TID 0000.0001)   Seconds in section "DO_ATMOSPHERIC_PHYS [FORWARD_STEP]":
(PID.TID 0000.0001)           User time:  8.201599121093750E-005
(PID.TID 0000.0001)         System time:  0.000000000000000E+000
(PID.TID 0000.0001)     Wall clock time:  8.773803710937500E-005
(PID.TID 0000.0001)          No. starts:          15
(PID.TID 0000.0001)           No. stops:          15
(PID.TID 0000.0001)   Seconds in section "DO_OCEANIC_PHYS     [FORWARD_STEP]":
(PID.TID 0000.0001)           User time:   4.37501335144043
(PID.TID 0000.0001)         System time:  0.000000000000000E+000
(PID.TID 0000.0001)     Wall clock time:   4.45292878150940
(PID.TID 0000.0001)          No. starts:          15
(PID.TID 0000.0001)           No. stops:          15
(PID.TID 0000.0001)   Seconds in section "KPP_CALC [DO_OCEANIC_PHYS]":
(PID.TID 0000.0001)           User time:   3.85770797729492
(PID.TID 0000.0001)         System time:  0.000000000000000E+000
(PID.TID 0000.0001)     Wall clock time:   3.91908335685730
(PID.TID 0000.0001)          No. starts:          15
(PID.TID 0000.0001)           No. stops:          15
(PID.TID 0000.0001)   Seconds in section "DYNAMICS            [FORWARD_STEP]":
(PID.TID 0000.0001)           User time:   11.3520717620850
(PID.TID 0000.0001)         System time:  0.000000000000000E+000
(PID.TID 0000.0001)     Wall clock time:   11.4051420688629
(PID.TID 0000.0001)          No. starts:          15
(PID.TID 0000.0001)           No. stops:          15
(PID.TID 0000.0001)   Seconds in section "UPDATE_SURF_DR      [FORWARD_STEP]":
(PID.TID 0000.0001)           User time:  9.697341918945312E-002
(PID.TID 0000.0001)         System time:  0.000000000000000E+000
(PID.TID 0000.0001)     Wall clock time:  9.773397445678711E-002
(PID.TID 0000.0001)          No. starts:          15
(PID.TID 0000.0001)           No. stops:          15
(PID.TID 0000.0001)   Seconds in section "SOLVE_FOR_PRESSURE  [FORWARD_STEP]":
(PID.TID 0000.0001)           User time:   1.28133964538574
(PID.TID 0000.0001)         System time:  0.000000000000000E+000
(PID.TID 0000.0001)     Wall clock time:   1.28240942955017
(PID.TID 0000.0001)          No. starts:          15
(PID.TID 0000.0001)           No. stops:          15
(PID.TID 0000.0001)   Seconds in section "MOM_CORRECTION_STEP [FORWARD_STEP]":
(PID.TID 0000.0001)           User time:  0.243799209594727
(PID.TID 0000.0001)         System time:  0.000000000000000E+000
(PID.TID 0000.0001)     Wall clock time:  0.243989229202271
(PID.TID 0000.0001)          No. starts:          15
(PID.TID 0000.0001)           No. stops:          15
(PID.TID 0000.0001)   Seconds in section "INTEGR_CONTINUITY   [FORWARD_STEP]":
(PID.TID 0000.0001)           User time:  0.325656890869141
(PID.TID 0000.0001)         System time:  0.000000000000000E+000
(PID.TID 0000.0001)     Wall clock time:  0.326406478881836
(PID.TID 0000.0001)          No. starts:          15
(PID.TID 0000.0001)           No. stops:          15
(PID.TID 0000.0001)   Seconds in section "BLOCKING_EXCHANGES  [FORWARD_STEP]":
(PID.TID 0000.0001)           User time:  0.760791778564453
(PID.TID 0000.0001)         System time:  0.000000000000000E+000
(PID.TID 0000.0001)     Wall clock time:  0.762156009674072
(PID.TID 0000.0001)          No. starts:          30
(PID.TID 0000.0001)           No. stops:          30
(PID.TID 0000.0001)   Seconds in section "THERMODYNAMICS      [FORWARD_STEP]":
(PID.TID 0000.0001)           User time:   7.18078804016113
(PID.TID 0000.0001)         System time:  0.000000000000000E+000
(PID.TID 0000.0001)     Wall clock time:   7.23506641387939
(PID.TID 0000.0001)          No. starts:          15
(PID.TID 0000.0001)           No. stops:          15
(PID.TID 0000.0001)   Seconds in section "TRC_CORRECTION_STEP [FORWARD_STEP]":
(PID.TID 0000.0001)           User time:  7.629394531250000E-005
(PID.TID 0000.0001)         System time:  0.000000000000000E+000
(PID.TID 0000.0001)     Wall clock time:  8.606910705566406E-005
(PID.TID 0000.0001)          No. starts:          15
(PID.TID 0000.0001)           No. stops:          15
(PID.TID 0000.0001)   Seconds in section "MONITOR             [FORWARD_STEP]":
(PID.TID 0000.0001)           User time:   1.18182563781738
(PID.TID 0000.0001)         System time:  0.000000000000000E+000
(PID.TID 0000.0001)     Wall clock time:   1.24898743629456
(PID.TID 0000.0001)          No. starts:          15
(PID.TID 0000.0001)           No. stops:          15
(PID.TID 0000.0001)   Seconds in section "DO_THE_MODEL_IO     [FORWARD_STEP]":
(PID.TID 0000.0001)           User time:   3.09079170227051
(PID.TID 0000.0001)         System time:  0.000000000000000E+000
(PID.TID 0000.0001)     Wall clock time:   7.23041749000549
(PID.TID 0000.0001)          No. starts:          15
(PID.TID 0000.0001)           No. stops:          15
(PID.TID 0000.0001)   Seconds in section "DO_WRITE_PICKUP     [FORWARD_STEP]":
(PID.TID 0000.0001)           User time:   3.37976837158203
(PID.TID 0000.0001)         System time:  0.000000000000000E+000
(PID.TID 0000.0001)     Wall clock time:   11.6358239650726
(PID.TID 0000.0001)          No. starts:          15
(PID.TID 0000.0001)           No. stops:          15
(PID.TID 0000.0001) // ======================================================
(PID.TID 0000.0001) // Tile <-> Tile communication statistics
(PID.TID 0000.0001) // ======================================================
(PID.TID 0000.0001) // o Tile number: 000001
(PID.TID 0000.0001) //         No. X exchanges =              0
(PID.TID 0000.0001) //            Max. X spins =              0
(PID.TID 0000.0001) //            Min. X spins =     1000000000
(PID.TID 0000.0001) //          Total. X spins =              0
(PID.TID 0000.0001) //            Avg. X spins =       0.00E+00
(PID.TID 0000.0001) //         No. Y exchanges =              0
(PID.TID 0000.0001) //            Max. Y spins =              0
(PID.TID 0000.0001) //            Min. Y spins =     1000000000
(PID.TID 0000.0001) //          Total. Y spins =              0
(PID.TID 0000.0001) //            Avg. Y spins =       0.00E+00
(PID.TID 0000.0001) // o Thread number: 000001
(PID.TID 0000.0001) //            No. barriers =          72282
(PID.TID 0000.0001) //      Max. barrier spins =              1
(PID.TID 0000.0001) //      Min. barrier spins =              1
(PID.TID 0000.0001) //     Total barrier spins =          72282
(PID.TID 0000.0001) //      Avg. barrier spins =       1.00E+00
PROGRAM MAIN: Execution ended Normally
