(PID.TID 0000.0001) 
(PID.TID 0000.0001) // ======================================================
(PID.TID 0000.0001) //                      MITgcm UV
(PID.TID 0000.0001) //                      =========
(PID.TID 0000.0001) // ======================================================
(PID.TID 0000.0001) // execution environment starting up...
(PID.TID 0000.0001) 
(PID.TID 0000.0001) // MITgcmUV version:  checkpoint67g
(PID.TID 0000.0001) // Build user:        anirban
(PID.TID 0000.0001) // Build host:        login1
(PID.TID 0000.0001) // Build date:        Mon Feb 11 12:26:06 PST 2019
(PID.TID 0000.0001) 
(PID.TID 0000.0001) // =======================================================
(PID.TID 0000.0001) // Execution Environment parameter file "eedata"
(PID.TID 0000.0001) // =======================================================
(PID.TID 0000.0001) ># Example "eedata" file
(PID.TID 0000.0001) ># Lines beginning "#" are comments
(PID.TID 0000.0001) ># nTx - No. threads per process in X
(PID.TID 0000.0001) ># nTy - No. threads per process in Y
(PID.TID 0000.0001) > &EEPARMS
(PID.TID 0000.0001) > nTx=1,
(PID.TID 0000.0001) > nTy=1,
(PID.TID 0000.0001) ># debugMode=.TRUE.,
(PID.TID 0000.0001) > /
(PID.TID 0000.0001) ># Note: Some systems use & as the
(PID.TID 0000.0001) ># namelist terminator. Other systems
(PID.TID 0000.0001) ># use a / character (as shown here).
(PID.TID 0000.0001) 
(PID.TID 0000.0001) // =======================================================
(PID.TID 0000.0001) // Computational Grid Specification ( see files "SIZE.h" )
(PID.TID 0000.0001) //                                  ( and "eedata"       )
(PID.TID 0000.0001) // =======================================================
(PID.TID 0000.0001)      nPx =   97 ; /* No. processes in X */
(PID.TID 0000.0001)      nPy =    1 ; /* No. processes in Y */
(PID.TID 0000.0001)      nSx =   10 ; /* No. tiles in X per process */
(PID.TID 0000.0001)      nSy =    1 ; /* No. tiles in Y per process */
(PID.TID 0000.0001)      sNx =   33 ; /* Tile size in X */
(PID.TID 0000.0001)      sNy =   28 ; /* Tile size in Y */
(PID.TID 0000.0001)      OLx =    4 ; /* Tile overlap distance in X */
(PID.TID 0000.0001)      OLy =    4 ; /* Tile overlap distance in Y */
(PID.TID 0000.0001)      nTx =    1 ; /* No. threads in X per process */
(PID.TID 0000.0001)      nTy =    1 ; /* No. threads in Y per process */
(PID.TID 0000.0001)       Nr =  100 ; /* No. levels in the vertical   */
(PID.TID 0000.0001)       Nx =32010 ; /* Total domain size in X ( = nPx*nSx*sNx ) */
(PID.TID 0000.0001)       Ny =   28 ; /* Total domain size in Y ( = nPy*nSy*sNy ) */
(PID.TID 0000.0001)   nTiles =   10 ; /* Total no. tiles per process ( = nSx*nSy ) */
(PID.TID 0000.0001)   nProcs =   97 ; /* Total no. processes ( = nPx*nPy ) */
(PID.TID 0000.0001) nThreads =    1 ; /* Total no. threads per process ( = nTx*nTy ) */
(PID.TID 0000.0001) usingMPI =    T ; /* Flag used to control whether MPI is in use */
(PID.TID 0000.0001)                   /*  note: To execute a program with MPI calls */
(PID.TID 0000.0001)                   /*  it must be launched appropriately e.g     */
(PID.TID 0000.0001)                   /*  "mpirun -np 64 ......"                    */
(PID.TID 0000.0001) useCoupler=    F ;/* Flag used to control communications with   */
(PID.TID 0000.0001)                   /*  other model components, through a coupler */
(PID.TID 0000.0001) useNest2W_parent =    F ;/* Control 2-W Nesting comm */
(PID.TID 0000.0001) useNest2W_child  =    F ;/* Control 2-W Nesting comm */
(PID.TID 0000.0001) debugMode =    F ; /* print debug msg. (sequence of S/R calls)  */
(PID.TID 0000.0001) printMapIncludesZeros=    F ; /* print zeros in Std.Output maps */
(PID.TID 0000.0001) maxLengthPrt1D=   65 /* maxLength of 1D array printed to StdOut */
(PID.TID 0000.0001) 
(PID.TID 0000.0001) ======= Starting MPI parallel Run =========
(PID.TID 0000.0001)  My Processor Name (len:  9 ) = hpc-93-25
(PID.TID 0000.0001)  Located at (  0,  0) on processor grid (0: 96,0:  0)
(PID.TID 0000.0001)  Origin at  (     1,     1) on global grid (1: 32010,1:    28)
(PID.TID 0000.0001)  North neighbor = processor 0000
(PID.TID 0000.0001)  South neighbor = processor 0000
(PID.TID 0000.0001)   East neighbor = processor 0001
(PID.TID 0000.0001)   West neighbor = processor 0096
(PID.TID 0000.0001) // ======================================================
(PID.TID 0000.0001) // Mapping of tiles to threads
(PID.TID 0000.0001) // ======================================================
(PID.TID 0000.0001) // -o- Thread   1, tiles (   1:  10,   1:   1)
(PID.TID 0000.0001) 
(PID.TID 0000.0001) W2_READPARMS: opening data.exch2
(PID.TID 0000.0001)  OPEN_COPY_DATA_FILE: opening file data.exch2
(PID.TID 0000.0001) // =======================================================
(PID.TID 0000.0001) // Parameter file "data.exch2"
(PID.TID 0000.0001) // =======================================================
(PID.TID 0000.0001) ># EXCH2 Package: Wrapper-2 User Choice
(PID.TID 0000.0001) >#--------------------
(PID.TID 0000.0001) >#  preDefTopol   :: pre-defined Topology selector:
(PID.TID 0000.0001) >#                :: = 0 : topology defined from processing "data.exch2";
(PID.TID 0000.0001) >#                :: = 1 : simple, single facet topology;
(PID.TID 0000.0001) >#                :: = 2 : customized topology (w2_set_myown_facets)
(PID.TID 0000.0001) >#                :: = 3 : 6-facet Cube (3 face-dims: nRed, nGreen, nBlue).
(PID.TID 0000.0001) >#  dimsFacets    :: facet pair of dimensions (n1x,n1y, n2x,n2y ...)
(PID.TID 0000.0001) >#  facetEdgeLink :: Face-Edge connectivity map:
(PID.TID 0000.0001) >#    facetEdgeLink(i,j)=XX.1 : face(j)-edge(i) (i=1,2,3,4 <==> N,S,E,W)
(PID.TID 0000.0001) >#    is connected to Northern edge of face "XX" ; similarly,
(PID.TID 0000.0001) >#    = XX.2 : to Southern.E, XX.3 = Eastern.E, XX.4 = Western.E of face "XX"
(PID.TID 0000.0001) >#  blankList     :: List of "blank" tiles
(PID.TID 0000.0001) >#  W2_mapIO      :: global map IO selector (-1 = old type ; 0 = 1 long line in X
(PID.TID 0000.0001) >#                :: 1 = compact, mostly in Y dir)
(PID.TID 0000.0001) >#  W2_printMsg   :: option for information messages printing
(PID.TID 0000.0001) >#                :: <0 : write to log file ; =0 : minimum print ;
(PID.TID 0000.0001) >#                :: =1 : no duplicated print ; =2 : all processes do print
(PID.TID 0000.0001) >#--------------------
(PID.TID 0000.0001) > &W2_EXCH2_PARM01
(PID.TID 0000.0001) >  W2_printMsg= 0,
(PID.TID 0000.0001) >  W2_mapIO   = 1,
(PID.TID 0000.0001) >#
(PID.TID 0000.0001) >#-- 5 facets llc_270 topology (drop facet 6 and its connection):
(PID.TID 0000.0001) >  preDefTopol = 1,
(PID.TID 0000.0001) >  dimsFacets = 1815, 532,
(PID.TID 0000.0001) >  blankList =
(PID.TID 0000.0001) >   386,
(PID.TID 0000.0001) >   441,
(PID.TID 0000.0001) >   496,
(PID.TID 0000.0001) >   551,
(PID.TID 0000.0001) >   606,
(PID.TID 0000.0001) >   661,
(PID.TID 0000.0001) >   716,
(PID.TID 0000.0001) >   771,
(PID.TID 0000.0001) >   826,
(PID.TID 0000.0001) >   881,
(PID.TID 0000.0001) >   936,
(PID.TID 0000.0001) >   991,
(PID.TID 0000.0001) >   442,
(PID.TID 0000.0001) >   497,
(PID.TID 0000.0001) >   552,
(PID.TID 0000.0001) >   607,
(PID.TID 0000.0001) >   662,
(PID.TID 0000.0001) >   717,
(PID.TID 0000.0001) >   772,
(PID.TID 0000.0001) >   827,
(PID.TID 0000.0001) >   882,
(PID.TID 0000.0001) >   937,
(PID.TID 0000.0001) >   992,
(PID.TID 0000.0001) >   498,
(PID.TID 0000.0001) >   553,
(PID.TID 0000.0001) >   608,
(PID.TID 0000.0001) >   663,
(PID.TID 0000.0001) >   718,
(PID.TID 0000.0001) >   773,
(PID.TID 0000.0001) >   828,
(PID.TID 0000.0001) >   883,
(PID.TID 0000.0001) >   938,
(PID.TID 0000.0001) >   993,
(PID.TID 0000.0001) >   554,
(PID.TID 0000.0001) >   774,
(PID.TID 0000.0001) >   829,
(PID.TID 0000.0001) >   884,
(PID.TID 0000.0001) >   939,
(PID.TID 0000.0001) >   994,
(PID.TID 0000.0001) >   830,
(PID.TID 0000.0001) >   885,
(PID.TID 0000.0001) >   940,
(PID.TID 0000.0001) >   995,
(PID.TID 0000.0001) >   941,
(PID.TID 0000.0001) >   996,
(PID.TID 0000.0001) >   942,
(PID.TID 0000.0001) >   997,
(PID.TID 0000.0001) >    51,
(PID.TID 0000.0001) >    52,
(PID.TID 0000.0001) >    53,
(PID.TID 0000.0001) >   108,
(PID.TID 0000.0001) >    54,
(PID.TID 0000.0001) >   109,
(PID.TID 0000.0001) >   164,
(PID.TID 0000.0001) >   219,
(PID.TID 0000.0001) >   274,
(PID.TID 0000.0001) >   329,
(PID.TID 0000.0001) >   714,
(PID.TID 0000.0001) >   769,
(PID.TID 0000.0001) >   824,
(PID.TID 0000.0001) >   989,
(PID.TID 0000.0001) >    55,
(PID.TID 0000.0001) >   110,
(PID.TID 0000.0001) >   165,
(PID.TID 0000.0001) >   220,
(PID.TID 0000.0001) >   275,
(PID.TID 0000.0001) >   330,
(PID.TID 0000.0001) >   385,
(PID.TID 0000.0001) >   715,
(PID.TID 0000.0001) >   770,
(PID.TID 0000.0001) >   825,
(PID.TID 0000.0001) >   880,
(PID.TID 0000.0001) >   935,
(PID.TID 0000.0001) >   990,
(PID.TID 0000.0001) >  1045,
(PID.TID 0000.0001) > &
(PID.TID 0000.0001) 
(PID.TID 0000.0001) W2_READPARMS: finished reading data.exch2
(PID.TID 0000.0001) W2_useE2ioLayOut=    T ;/* T: use Exch2 glob IO map; F: use model default */
(PID.TID 0000.0001) W2_mapIO        =   1 ; /* select option for Exch2 global-IO map */
(PID.TID 0000.0001) W2_printMsg     =   0 ; /* select option for printing information */
(PID.TID 0000.0001) ===== Start setting W2 TOPOLOGY:
(PID.TID 0000.0001) W2_E2SETUP: number of Active Tiles =     970
(PID.TID 0000.0001) W2_E2SETUP: number of Blank Tiles  =      75
(PID.TID 0000.0001) W2_E2SETUP: Total number of Tiles  =    1045
(PID.TID 0000.0001) W2_SET_SINGLE_FACET: preDefTopol=  1 selected
(PID.TID 0000.0001) W2_E2SETUP: Total number of Facets =       1
(PID.TID 0000.0001) W2_SET_F2F_INDEX: index matrix for connected Facet-Edges:
(PID.TID 0000.0001) W2_SET_MAP_TILES: tile mapping within facet and global Map:
(PID.TID 0000.0001)  W2_mapIO = 1815 (=   55*sNx)
(PID.TID 0000.0001)  Global Map (IO): X-size=    1815 , Y-size=     532
(PID.TID 0000.0001) W2_SET_MAP_TILES: tile offset within facet and global Map:
- facet  1 : X-size=  1815 , Y-size=   532 ; 1045 tiles (Tx,Ty=  55,  19)
(PID.TID 0000.0001) W2_SET_MAP_CUMSUM: setting Facet Matrix for CUMUL-SUM
 Facet Matrix for CUMUL-SUM (nFacets=   1, nActive=   1 ):
- facet  1 :  0  0 ,
(PID.TID 0000.0001) W2_SET_MAP_CUMSUM: done (skip Tile Matrix setting)
(PID.TID 0000.0001) W2_SET_TILE2TILES: tile neighbours and index connection:
(PID.TID 0000.0001) current Max.Nb.Neighbours (e.g., on tile    8 ) =  4
(PID.TID 0000.0001) ===== W2 TILE TOPOLOGY =====
(PID.TID 0000.0001)  TILE:     1 (bi,bj=   1   1 ), Nb of Neighbours =  2
(PID.TID 0000.0001)     NEIGHBOUR  1 = TILE   56 (n=  2) Comm = MSG (PROC=    6)
(PID.TID 0000.0001)     NEIGHBOUR  2 = TILE    2 (n=  3) Comm = PUT (PROC=    1)
(PID.TID 0000.0001)  TILE:     2 (bi,bj=   2   1 ), Nb of Neighbours =  3
(PID.TID 0000.0001)     NEIGHBOUR  1 = TILE   57 (n=  2) Comm = MSG (PROC=    6)
(PID.TID 0000.0001)     NEIGHBOUR  2 = TILE    3 (n=  3) Comm = PUT (PROC=    1)
(PID.TID 0000.0001)     NEIGHBOUR  3 = TILE    1 (n=  2) Comm = PUT (PROC=    1)
(PID.TID 0000.0001)  TILE:     3 (bi,bj=   3   1 ), Nb of Neighbours =  3
(PID.TID 0000.0001)     NEIGHBOUR  1 = TILE   58 (n=  2) Comm = MSG (PROC=    6)
(PID.TID 0000.0001)     NEIGHBOUR  2 = TILE    4 (n=  3) Comm = PUT (PROC=    1)
(PID.TID 0000.0001)     NEIGHBOUR  3 = TILE    2 (n=  2) Comm = PUT (PROC=    1)
(PID.TID 0000.0001)  TILE:     4 (bi,bj=   4   1 ), Nb of Neighbours =  3
(PID.TID 0000.0001)     NEIGHBOUR  1 = TILE   59 (n=  2) Comm = MSG (PROC=    6)
(PID.TID 0000.0001)     NEIGHBOUR  2 = TILE    5 (n=  3) Comm = PUT (PROC=    1)
(PID.TID 0000.0001)     NEIGHBOUR  3 = TILE    3 (n=  2) Comm = PUT (PROC=    1)
(PID.TID 0000.0001)  TILE:     5 (bi,bj=   5   1 ), Nb of Neighbours =  3
(PID.TID 0000.0001)     NEIGHBOUR  1 = TILE   60 (n=  2) Comm = MSG (PROC=    6)
(PID.TID 0000.0001)     NEIGHBOUR  2 = TILE    6 (n=  3) Comm = PUT (PROC=    1)
(PID.TID 0000.0001)     NEIGHBOUR  3 = TILE    4 (n=  2) Comm = PUT (PROC=    1)
(PID.TID 0000.0001)  TILE:     6 (bi,bj=   6   1 ), Nb of Neighbours =  3
(PID.TID 0000.0001)     NEIGHBOUR  1 = TILE   61 (n=  2) Comm = MSG (PROC=    6)
(PID.TID 0000.0001)     NEIGHBOUR  2 = TILE    7 (n=  3) Comm = PUT (PROC=    1)
(PID.TID 0000.0001)     NEIGHBOUR  3 = TILE    5 (n=  2) Comm = PUT (PROC=    1)
(PID.TID 0000.0001)  TILE:     7 (bi,bj=   7   1 ), Nb of Neighbours =  3
(PID.TID 0000.0001)     NEIGHBOUR  1 = TILE   62 (n=  2) Comm = MSG (PROC=    6)
(PID.TID 0000.0001)     NEIGHBOUR  2 = TILE    8 (n=  4) Comm = PUT (PROC=    1)
(PID.TID 0000.0001)     NEIGHBOUR  3 = TILE    6 (n=  2) Comm = PUT (PROC=    1)
(PID.TID 0000.0001)  TILE:     8 (bi,bj=   8   1 ), Nb of Neighbours =  4
(PID.TID 0000.0001)     NEIGHBOUR  1 = TILE   63 (n=  2) Comm = MSG (PROC=    6)
(PID.TID 0000.0001)     NEIGHBOUR  2 = TILE  998 (n=  1) Comm = MSG (PROC=   93)
(PID.TID 0000.0001)     NEIGHBOUR  3 = TILE    9 (n=  4) Comm = PUT (PROC=    1)
(PID.TID 0000.0001)     NEIGHBOUR  4 = TILE    7 (n=  2) Comm = PUT (PROC=    1)
(PID.TID 0000.0001)  TILE:     9 (bi,bj=   9   1 ), Nb of Neighbours =  4
(PID.TID 0000.0001)     NEIGHBOUR  1 = TILE   64 (n=  2) Comm = MSG (PROC=    6)
(PID.TID 0000.0001)     NEIGHBOUR  2 = TILE  999 (n=  1) Comm = MSG (PROC=   93)
(PID.TID 0000.0001)     NEIGHBOUR  3 = TILE   10 (n=  4) Comm = PUT (PROC=    1)
(PID.TID 0000.0001)     NEIGHBOUR  4 = TILE    8 (n=  3) Comm = PUT (PROC=    1)
(PID.TID 0000.0001)  TILE:    10 (bi,bj=  10   1 ), Nb of Neighbours =  4
(PID.TID 0000.0001)     NEIGHBOUR  1 = TILE   65 (n=  2) Comm = MSG (PROC=    6)
(PID.TID 0000.0001)     NEIGHBOUR  2 = TILE 1000 (n=  1) Comm = MSG (PROC=   93)
(PID.TID 0000.0001)     NEIGHBOUR  3 = TILE   11 (n=  4) Comm = MSG (PROC=    2)
(PID.TID 0000.0001)     NEIGHBOUR  4 = TILE    9 (n=  3) Comm = PUT (PROC=    1)
(PID.TID 0000.0001) =====       setting W2 TOPOLOGY: Done
(PID.TID 0000.0001) 
(PID.TID 0000.0001)  INI_PARMS: opening model parameter file "data"
(PID.TID 0000.0001)  OPEN_COPY_DATA_FILE: opening file data
(PID.TID 0000.0001) // =======================================================
(PID.TID 0000.0001) // Parameter file "data"
(PID.TID 0000.0001) // =======================================================
(PID.TID 0000.0001) >### Data file with primary model parameters -----------------------------------
(PID.TID 0000.0001) >#
(PID.TID 0000.0001) >### Continuous equation parameters --------------------------------------------
(PID.TID 0000.0001) > &PARM01
(PID.TID 0000.0001) >## Reference temperatures and salinities for every vertical level.
(PID.TID 0000.0001) > tRef =  18.89, 18.89, 18.89, 18.89, 18.89, 18.87, 18.85, 18.82,
(PID.TID 0000.0001) >         18.80, 18.73, 18.63, 18.49, 18.28, 18.08, 17.86, 17.63,
(PID.TID 0000.0001) >         17.40, 17.18, 16.95, 16.73, 16.52, 16.31, 16.10, 15.89,
(PID.TID 0000.0001) >         15.69, 15.49, 15.28, 15.08, 14.88, 14.67, 14.47, 14.25,
(PID.TID 0000.0001) >         14.03, 13.80, 13.55, 13.29, 13.01, 12.73, 12.42, 12.11,
(PID.TID 0000.0001) >         11.78, 11.43, 11.07, 10.70, 10.31,  9.93,  9.53,  9.11,
(PID.TID 0000.0001) >          8.71,  8.29,  7.89,  7.51,  7.13,  6.78,  6.44,  6.11,
(PID.TID 0000.0001) >          5.81,  5.51,  5.23,  4.97,  4.73,  4.51,  4.30,  4.11,
(PID.TID 0000.0001) >          3.94,  3.78,  3.63,  3.50,  3.38,  3.25,  3.14,  3.04,
(PID.TID 0000.0001) >          2.94,  2.83,  2.74,  2.64,  2.54,  2.45,  2.36,  2.27,
(PID.TID 0000.0001) >          2.19,  2.10,  2.03,  1.95,  1.86,  1.78,  1.70,  1.63,
(PID.TID 0000.0001) >          1.55,  1.48,  1.41,  1.34,  1.27,  1.20,  1.13,  1.06,
(PID.TID 0000.0001) >          1.00,  0.96,  0.93,  0.91,
(PID.TID 0000.0001) > sRef =  34.84, 34.84, 34.84, 34.84, 34.84, 34.84, 34.85, 34.85,
(PID.TID 0000.0001) >         34.85, 34.86, 34.87, 34.88, 34.90, 34.91, 34.93, 34.95,
(PID.TID 0000.0001) >         34.96, 34.98, 34.99, 35.00, 35.01, 35.02, 35.03, 35.04,
(PID.TID 0000.0001) >         35.05, 35.06, 35.07, 35.07, 35.07, 35.07, 35.07, 35.07,
(PID.TID 0000.0001) >         35.07, 35.06, 35.05, 35.04, 35.03, 35.02, 35.01, 34.99,
(PID.TID 0000.0001) >         34.97, 34.95, 34.92, 34.90, 34.87, 34.84, 34.81, 34.78,
(PID.TID 0000.0001) >         34.75, 34.72, 34.69, 34.67, 34.65, 34.62, 34.61, 34.60,
(PID.TID 0000.0001) >         34.59, 34.59, 34.58, 34.59, 34.59, 34.60, 34.60, 34.61,
(PID.TID 0000.0001) >         34.62, 34.63, 34.64, 34.65, 34.66, 34.67, 34.67, 34.68,
(PID.TID 0000.0001) >         34.69, 34.70, 34.71, 34.71, 34.72, 34.72, 34.73, 34.73,
(PID.TID 0000.0001) >         34.73, 34.74, 34.74, 34.74, 34.74, 34.75, 34.74, 34.74,
(PID.TID 0000.0001) >         34.74, 34.74, 34.74, 34.74, 34.74, 34.74, 34.73, 34.73,
(PID.TID 0000.0001) >         34.73, 34.73, 34.73, 34.73,
(PID.TID 0000.0001) > rhonil        = 1029.,
(PID.TID 0000.0001) > rhoConstFresh = 1000.,
(PID.TID 0000.0001) > eosType = 'JMD95Z',
(PID.TID 0000.0001) >#
(PID.TID 0000.0001) >## Various prescriptions for viscosity and diffusivity.
(PID.TID 0000.0001) > viscAr     = 5.e-04,
(PID.TID 0000.0001) > viscA4Grid = 0.0,
(PID.TID 0000.0001) > diffKhT    = 0.E0,
(PID.TID 0000.0001) > diffKhS    = 0.E0,
(PID.TID 0000.0001) > diffK4T    = 0.E10,
(PID.TID 0000.0001) > diffK4S    = 0.E10,
(PID.TID 0000.0001) > diffKrT    = 1.0e-5,
(PID.TID 0000.0001) > diffKrS    = 1.0e-5,
(PID.TID 0000.0001) > bottomDragQuadratic = 0.002,
(PID.TID 0000.0001) > no_slip_sides     = .TRUE.,
(PID.TID 0000.0001) > no_slip_bottom    = .TRUE.,
(PID.TID 0000.0001) > implicitDiffusion = .TRUE.,
(PID.TID 0000.0001) > implicitViscosity = .TRUE.,
(PID.TID 0000.0001) ># horizontal momentum closure
(PID.TID 0000.0001) > viscC4Leith   = 2.0,
(PID.TID 0000.0001) > viscC4Leithd  = 2.0,
(PID.TID 0000.0001) > viscA4GridMax = 0.8,
(PID.TID 0000.0001) >#
(PID.TID 0000.0001) >## Parameters that control numerical methods like advection schemes and
(PID.TID 0000.0001) >#  treatment of the free-surface.
(PID.TID 0000.0001) > tempAdvScheme = 7,
(PID.TID 0000.0001) > saltAdvScheme = 7,
(PID.TID 0000.0001) > implicitFreeSurface     = .TRUE.,
(PID.TID 0000.0001) > staggerTimeStep         = .TRUE.,
(PID.TID 0000.0001) > exactConserv            = .TRUE.,
(PID.TID 0000.0001) > vectorInvariantMomentum = .TRUE.,
(PID.TID 0000.0001) > useAreaViscLength       = .TRUE.,
(PID.TID 0000.0001) > highOrderVorticity      = .TRUE.,
(PID.TID 0000.0001) > multiDimAdvection       = .TRUE.,
(PID.TID 0000.0001) >#
(PID.TID 0000.0001) >## These parameters seem to be associated with the external forcing.
(PID.TID 0000.0001) > convertFW2Salt = -1.,
(PID.TID 0000.0001) > temp_EvPrRn    =  0.,
(PID.TID 0000.0001) > useRealFreshWaterFlux = .FALSE.,
(PID.TID 0000.0001) > allowFreezing         = .FALSE.,
(PID.TID 0000.0001) >#
(PID.TID 0000.0001) >## Parameters associated with bathymetry specification.
(PID.TID 0000.0001) > hFacMin   = 0.2,
(PID.TID 0000.0001) > hFacMinDr = 5.,
(PID.TID 0000.0001) >#
(PID.TID 0000.0001) >## Parameters for reading, writing, and misc numerical details.
(PID.TID 0000.0001) > globalFiles     = .TRUE.,
(PID.TID 0000.0001) > useSingleCpuIO  = .TRUE.,
(PID.TID 0000.0001) > readBinaryPrec  = 32,
(PID.TID 0000.0001) > writeBinaryPrec = 32,
(PID.TID 0000.0001) > debuglevel      = 2,
(PID.TID 0000.0001) >#
(PID.TID 0000.0001) >## Unused parameters.
(PID.TID 0000.0001) ># gravity = 9.81,
(PID.TID 0000.0001) ># viscA4Grid = 2.0E-3,
(PID.TID 0000.0001) ># viscAhGrid = 2.5E-4,
(PID.TID 0000.0001) ># bottomDraglinear    = 1.E-3,
(PID.TID 0000.0001) ># Note: nonlinFreeSurf=1 with rStar=0 breaks the code.
(PID.TID 0000.0001) ># nonlinFreeSurf = 4,
(PID.TID 0000.0001) ># select_rStar   = 1,
(PID.TID 0000.0001) ># hFacInf   = 0.1,
(PID.TID 0000.0001) ># hFacSup   = 5.,
(PID.TID 0000.0001) ># implicSurfPress = 0.6,
(PID.TID 0000.0001) ># implicDiv2DFlow = 0.6,
(PID.TID 0000.0001) ># useSingleCpuInput = .TRUE.,
(PID.TID 0000.0001) ># set to eccov4, make sure minbathy=20m first
(PID.TID 0000.0001) ># debuglevel = -1,
(PID.TID 0000.0001) ># useJamartWetPoints = .TRUE.,
(PID.TID 0000.0001) ># writeBinaryPrec=64,
(PID.TID 0000.0001) > /
(PID.TID 0000.0001) >### Elliptic solver parameters ------------------------------------------------
(PID.TID 0000.0001) > &PARM02
(PID.TID 0000.0001) > cg2dMaxIters       = 1000,
(PID.TID 0000.0001) ># cg2dTargetResidual = 1.E-8,
(PID.TID 0000.0001) > cg2dTargetResWunit = 1e-18,
(PID.TID 0000.0001) >#
(PID.TID 0000.0001) >#cg2dMaxIters       = 100,
(PID.TID 0000.0001) >#cg2dTargetResidual = 1.E-5,
(PID.TID 0000.0001) > &
(PID.TID 0000.0001) >### Time stepping parameters --------------------------------------------------
(PID.TID 0000.0001) > &PARM03
(PID.TID 0000.0001) > deltaT      =    240.,
(PID.TID 0000.0001) > nIter0      =  0,
(PID.TID 0000.0001) > nTimeSteps  =  15,
(PID.TID 0000.0001) > pChkptFreq  = 864000.,
(PID.TID 0000.0001) > monitorFreq =   240.,
(PID.TID 0000.0001) > abEps       = 0.1,
(PID.TID 0000.0001) >## It is unclear what these specify.
(PID.TID 0000.0001) > pickupStrictlyMatch = .FALSE.,
(PID.TID 0000.0001) > forcing_In_AB       = .FALSE.,
(PID.TID 0000.0001) > momDissip_In_AB     = .FALSE.,
(PID.TID 0000.0001) > dumpInitAndLast     = .FALSE.,
(PID.TID 0000.0001) > /
(PID.TID 0000.0001) >### Gridding parameters -------------------------------------------------------
(PID.TID 0000.0001) > &PARM04
(PID.TID 0000.0001) > usingSphericalPolarGrid=.TRUE.,
(PID.TID 0000.0001) >## Specify the height of each vertical level.
(PID.TID 0000.0001) > delR =   5.00,   5.00,   5.00,   5.00,   5.00,   5.00,   5.00,   5.00,   5.00,
(PID.TID 0000.0001) >          5.00,   5.00,   5.00,   5.00,   5.00,   5.00,   5.01,   5.01,   5.02,
(PID.TID 0000.0001) >          5.04,   5.07,   5.12,   5.20,   5.31,   5.49,   5.72,   6.04,   6.45,
(PID.TID 0000.0001) >          6.97,   7.62,   8.42,   9.36,  10.46,  11.72,  13.13,  14.70,  16.40,
(PID.TID 0000.0001) >         18.24,  20.18,  22.21,  24.29,  26.43,  28.57,  30.71,  32.79,  34.82,
(PID.TID 0000.0001) >         36.76,  38.60,  40.30,  41.87,  43.28,  44.54,  45.64,  46.58,  47.38,
(PID.TID 0000.0001) >         48.03,  48.55,  48.96,  49.29,  49.53,  49.72,  49.90,  50.11,  50.41,
(PID.TID 0000.0001) >         50.92,  51.69,  52.87,  54.54,  56.79,  59.67,  63.16,  67.26,  71.83,
(PID.TID 0000.0001) >         76.83,  82.11,  87.61,  93.22,  98.91, 104.64, 110.38, 116.12, 121.87,
(PID.TID 0000.0001) >        127.63, 133.38, 139.12, 144.87, 150.63, 156.38, 162.12, 167.87, 173.63,
(PID.TID 0000.0001) >        179.38, 185.12, 190.87, 196.63, 202.38, 208.12, 213.87, 219.63, 225.38,
(PID.TID 0000.0001) >        231.12,
(PID.TID 0000.0001) > xgOrigin=-81.583335876464844,
(PID.TID 0000.0001) > dxSpacing=0.041666666666667,
(PID.TID 0000.0001) > ygOrigin=26.855293273925781,
(PID.TID 0000.0001) > delYFile = 'delYFile',
(PID.TID 0000.0001) > /
(PID.TID 0000.0001) ># -----------------------------------------------------------------------------
(PID.TID 0000.0001) >### Bathymetry files and initial condition files
(PID.TID 0000.0001) > &PARM05
(PID.TID 0000.0001) > bathyFile       = 'bathy.bin',
(PID.TID 0000.0001) > hydrogThetaFile = 'T0_1815x532x100.bin',
(PID.TID 0000.0001) > hydrogSaltFile  = 'S0_1815x532x100.bin',
(PID.TID 0000.0001) > uVelInitFile    = 'U0_1815x532x100.bin',
(PID.TID 0000.0001) > vVelInitFile    = 'V0_1815x532x100.bin',
(PID.TID 0000.0001) > /
(PID.TID 0000.0001) 
(PID.TID 0000.0001)  INI_PARMS ; starts to read PARM01
(PID.TID 0000.0001)  INI_PARMS ; read PARM01 : OK
(PID.TID 0000.0001)  INI_PARMS ; starts to read PARM02
(PID.TID 0000.0001)  INI_PARMS ; read PARM02 : OK
(PID.TID 0000.0001)  INI_PARMS ; starts to read PARM03
(PID.TID 0000.0001)  INI_PARMS ; read PARM03 : OK
(PID.TID 0000.0001)  INI_PARMS ; starts to read PARM04
(PID.TID 0000.0001)  INI_PARMS ; read PARM04 : OK
(PID.TID 0000.0001)  INI_PARMS ; starts to read PARM05
(PID.TID 0000.0001)  INI_PARMS ; read PARM05 : OK
(PID.TID 0000.0001)  INI_PARMS: finished reading file "data"
(PID.TID 0000.0001)  PACKAGES_BOOT: opening data.pkg
(PID.TID 0000.0001)  OPEN_COPY_DATA_FILE: opening file data.pkg
(PID.TID 0000.0001) // =======================================================
(PID.TID 0000.0001) // Parameter file "data.pkg"
(PID.TID 0000.0001) // =======================================================
(PID.TID 0000.0001) ># Packages
(PID.TID 0000.0001) > &PACKAGES
(PID.TID 0000.0001) > useCAL         = .TRUE.,
(PID.TID 0000.0001) > useEXF         = .TRUE.,
(PID.TID 0000.0001) > useKPP         = .TRUE.,
(PID.TID 0000.0001) > useDiagnostics = .TRUE.,
(PID.TID 0000.0001) > useOBCS        = .TRUE.,
(PID.TID 0000.0001) ># useProfiles=.TRUE.,
(PID.TID 0000.0001) > /
(PID.TID 0000.0001) 
(PID.TID 0000.0001)  PACKAGES_BOOT: finished reading data.pkg
(PID.TID 0000.0001)  PACKAGES_BOOT: On/Off package Summary
 --------  pkgs with a standard "usePKG" On/Off switch in "data.pkg":  --------
 pkg/obcs                 compiled   and   used ( useOBCS                  = T )
 pkg/kpp                  compiled   and   used ( useKPP                   = T )
 pkg/cal                  compiled   and   used ( useCAL                   = T )
 pkg/exf                  compiled   and   used ( useEXF                   = T )
 pkg/diagnostics          compiled   and   used ( useDiagnostics           = T )
 -------- pkgs without standard "usePKG" On/Off switch in "data.pkg":  --------
 pkg/generic_advdiff      compiled   and   used ( useGAD                   = T )
 pkg/mom_common           compiled   and   used ( momStepping              = T )
 pkg/mom_vecinv           compiled   and   used ( +vectorInvariantMomentum = T )
 pkg/monitor              compiled   and   used ( monitorFreq > 0.         = T )
 pkg/debug                compiled but not used ( debugMode                = F )
 pkg/exch2                compiled   and   used
 pkg/rw                   compiled   and   used
 pkg/mdsio                compiled   and   used
(PID.TID 0000.0001)  PACKAGES_BOOT: End of package Summary
(PID.TID 0000.0001) 
(PID.TID 0000.0001) CAL_READPARMS: opening data.cal
(PID.TID 0000.0001)  OPEN_COPY_DATA_FILE: opening file data.cal
(PID.TID 0000.0001) // =======================================================
(PID.TID 0000.0001) // Parameter file "data.cal"
(PID.TID 0000.0001) // =======================================================
(PID.TID 0000.0001) >#
(PID.TID 0000.0001) ># *******************
(PID.TID 0000.0001) ># Calendar Parameters
(PID.TID 0000.0001) ># *******************
(PID.TID 0000.0001) > &CAL_NML
(PID.TID 0000.0001) > TheCalendar='gregorian',
(PID.TID 0000.0001) > startDate_1=20080101,
(PID.TID 0000.0001) > startDate_2=000000,
(PID.TID 0000.0001) > calendarDumps = .TRUE.,
(PID.TID 0000.0001) > &
(PID.TID 0000.0001) 
(PID.TID 0000.0001) CAL_READPARMS: finished reading data.cal
(PID.TID 0000.0001) EXF_READPARMS: opening data.exf
(PID.TID 0000.0001)  OPEN_COPY_DATA_FILE: opening file data.exf
(PID.TID 0000.0001) // =======================================================
(PID.TID 0000.0001) // Parameter file "data.exf"
(PID.TID 0000.0001) // =======================================================
(PID.TID 0000.0001) ># *********************
(PID.TID 0000.0001) ># External Forcing Data
(PID.TID 0000.0001) ># *********************
(PID.TID 0000.0001) >#
(PID.TID 0000.0001) > &EXF_NML_01
(PID.TID 0000.0001) >#
(PID.TID 0000.0001) > useAtmWind        = .TRUE.,
(PID.TID 0000.0001) >#
(PID.TID 0000.0001) >#TO COMBINE WITH ALLOW_ZENITH_ANGLE:
(PID.TID 0000.0001) > exf_albedo        = 0.1,
(PID.TID 0000.0001) > useExfZenIncoming = .TRUE.,
(PID.TID 0000.0001) > select_ZenAlbedo  = 1,
(PID.TID 0000.0001) >#
(PID.TID 0000.0001) > ocean_emissivity  = 0.97,
(PID.TID 0000.0001) > ice_emissivity    = 0.95,
(PID.TID 0000.0001) > snow_emissivity   = 0.95,
(PID.TID 0000.0001) > exf_iprec         = 32,
(PID.TID 0000.0001) > exf_iprec_obcs    = 32,
(PID.TID 0000.0001) > exf_yftype        = 'RL',
(PID.TID 0000.0001) > useExfYearlyFields= .TRUE.,
(PID.TID 0000.0001) > useExfCheckRange  = .FALSE.,
(PID.TID 0000.0001) > useRelativeWind   = .TRUE.,
(PID.TID 0000.0001) > &
(PID.TID 0000.0001) >#
(PID.TID 0000.0001) > &EXF_NML_02
(PID.TID 0000.0001) > apressurefile     = 'era_forcing/ERA5_pres',
(PID.TID 0000.0001) > atempfile         = 'era_forcing/ERA5_tmp2m_degC',
(PID.TID 0000.0001) > aqhfile           = 'era_forcing/ERA5_spfh2m',
(PID.TID 0000.0001) > precipfile        = 'era_forcing/ERA5_rain',
(PID.TID 0000.0001) > uwindfile         = 'era_forcing/ERA5_u10m',
(PID.TID 0000.0001) > vwindfile         = 'era_forcing/ERA5_v10m',
(PID.TID 0000.0001) > swdownfile        = 'era_forcing/ERA5_dsw',
(PID.TID 0000.0001) > lwdownfile        = 'era_forcing/ERA5_dlw',
(PID.TID 0000.0001) > tidePotfile       = 'tide_IAU_EARTH',
(PID.TID 0000.0001) > runofffile        = 'runoff1p2472-360x180x12.bin',
(PID.TID 0000.0001) >#
(PID.TID 0000.0001) > apressurestartdate1 = 19920101,
(PID.TID 0000.0001) > apressurestartdate2 = 000000,
(PID.TID 0000.0001) > apressureperiod   = 3600.0,
(PID.TID 0000.0001) >#
(PID.TID 0000.0001) > atempstartdate1   = 19920101,
(PID.TID 0000.0001) > atempstartdate2   = 000000,
(PID.TID 0000.0001) > atempperiod       = 3600.0,
(PID.TID 0000.0001) >#
(PID.TID 0000.0001) > aqhstartdate1     = 19920101,
(PID.TID 0000.0001) > aqhstartdate2     = 000000,
(PID.TID 0000.0001) > aqhperiod         = 3600.0,
(PID.TID 0000.0001) >#
(PID.TID 0000.0001) > precipstartdate1  = 19920101,
(PID.TID 0000.0001) > precipstartdate2  = 003000,
(PID.TID 0000.0001) > precipperiod      = 3600.0,
(PID.TID 0000.0001) >#
(PID.TID 0000.0001) > uwindstartdate1   = 19920101,
(PID.TID 0000.0001) > uwindstartdate2   = 000000,
(PID.TID 0000.0001) > uwindperiod       = 3600.0,
(PID.TID 0000.0001) >#
(PID.TID 0000.0001) > vwindstartdate1   = 19920101,
(PID.TID 0000.0001) > vwindstartdate2   = 000000,
(PID.TID 0000.0001) > vwindperiod       = 3600.0,
(PID.TID 0000.0001) >#
(PID.TID 0000.0001) > swdownstartdate1  = 19920101,
(PID.TID 0000.0001) > swdownstartdate2  = 003000,
(PID.TID 0000.0001) > swdownperiod      = 3600.0,
(PID.TID 0000.0001) >#
(PID.TID 0000.0001) > lwdownstartdate1  = 19920101,
(PID.TID 0000.0001) > lwdownstartdate2  = 003000,
(PID.TID 0000.0001) > lwdownperiod      = 3600.0,
(PID.TID 0000.0001) > tidePotstartdate1  = 19790101,
(PID.TID 0000.0001) > tidePotstartdate2  = 000000,
(PID.TID 0000.0001) > tidePotperiod      = 3600.0,
(PID.TID 0000.0001) ># "*period=-12" specifies monthly-mean forcing
(PID.TID 0000.0001) > runoffperiod      = -12,
(PID.TID 0000.0001) > &
(PID.TID 0000.0001) >#
(PID.TID 0000.0001) > &EXF_NML_03
(PID.TID 0000.0001) > exf_offset_atemp   = 273.15,
(PID.TID 0000.0001) > exf_inscal_swdown  = -1.0,
(PID.TID 0000.0001) > exf_inscal_lwdown  = -1.0,
(PID.TID 0000.0001) ># 1/365/24/3600 yr/s conversion, runoff [m/yr --> m/s]
(PID.TID 0000.0001) > exf_inscal_runoff = 3.1710e-08,
(PID.TID 0000.0001) > &
(PID.TID 0000.0001) >#
(PID.TID 0000.0001) > &EXF_NML_04
(PID.TID 0000.0001) ># runoff_interpMethod = 0,
(PID.TID 0000.0001) >#
(PID.TID 0000.0001) > apressure_lon0    =   0.0000000D0,
(PID.TID 0000.0001) > apressure_lon_inc =   0.2812500D0,
(PID.TID 0000.0001) > apressure_lat0    = -89.7848850D0,
(PID.TID 0000.0001) > apressure_lat_inc = 0.2786766D0,0.2803199D0,0.2806917D0,0.2808328D0,0.2809011D0,0.2809392D0,0.2809626D0,0.2809781D0,
(PID.TID 0000.0001) >                     0.2809888D0,0.2809965D0,0.2810023D0,0.2810067D0,0.2810102D0,0.2810129D0,0.2810151D0,
(PID.TID 0000.0001) >                     33*0.2810258D0,543*0.2810302D0,33*0.2810258D0,
(PID.TID 0000.0001) >                     0.2810151D0,0.2810129D0,0.2810102D0,0.2810067D0,0.2810023D0,0.2809965D0,0.2809888D0,0.2809781D0,
(PID.TID 0000.0001) >                     0.2809626D0,0.2809392D0,0.2809011D0,0.2808328D0,0.2806917D0,0.2803199D0,0.2786766D0,
(PID.TID 0000.0001) > apressure_nlon    = 1280,
(PID.TID 0000.0001) > apressure_nlat    = 640,
(PID.TID 0000.0001) >#
(PID.TID 0000.0001) > atemp_lon0        =   0.0000000D0,
(PID.TID 0000.0001) > atemp_lon_inc     =   0.2812500D0,
(PID.TID 0000.0001) > atemp_lat0        = -89.7848850D0,
(PID.TID 0000.0001) > atemp_lat_inc     = 0.2786766D0,0.2803199D0,0.2806917D0,0.2808328D0,0.2809011D0,0.2809392D0,0.2809626D0,0.2809781D0,
(PID.TID 0000.0001) >                     0.2809888D0,0.2809965D0,0.2810023D0,0.2810067D0,0.2810102D0,0.2810129D0,0.2810151D0,
(PID.TID 0000.0001) >                     33*0.2810258D0,543*0.2810302D0,33*0.2810258D0,
(PID.TID 0000.0001) >                     0.2810151D0,0.2810129D0,0.2810102D0,0.2810067D0,0.2810023D0,0.2809965D0,0.2809888D0,0.2809781D0,
(PID.TID 0000.0001) >                     0.2809626D0,0.2809392D0,0.2809011D0,0.2808328D0,0.2806917D0,0.2803199D0,0.2786766D0,
(PID.TID 0000.0001) > atemp_nlon        = 1280,
(PID.TID 0000.0001) > atemp_nlat        = 640,
(PID.TID 0000.0001) >#
(PID.TID 0000.0001) > aqh_lon0        =   0.0000000D0,
(PID.TID 0000.0001) > aqh_lon_inc     =   0.2812500D0,
(PID.TID 0000.0001) > aqh_lat0        = -89.7848850D0,
(PID.TID 0000.0001) > aqh_lat_inc     = 0.2786766D0,0.2803199D0,0.2806917D0,0.2808328D0,0.2809011D0,0.2809392D0,0.2809626D0,0.2809781D0,
(PID.TID 0000.0001) >                     0.2809888D0,0.2809965D0,0.2810023D0,0.2810067D0,0.2810102D0,0.2810129D0,0.2810151D0,
(PID.TID 0000.0001) >                     33*0.2810258D0,543*0.2810302D0,33*0.2810258D0,
(PID.TID 0000.0001) >                     0.2810151D0,0.2810129D0,0.2810102D0,0.2810067D0,0.2810023D0,0.2809965D0,0.2809888D0,0.2809781D0,
(PID.TID 0000.0001) >                     0.2809626D0,0.2809392D0,0.2809011D0,0.2808328D0,0.2806917D0,0.2803199D0,0.2786766D0,
(PID.TID 0000.0001) > aqh_nlon        = 1280,
(PID.TID 0000.0001) > aqh_nlat        = 640,
(PID.TID 0000.0001) >#
(PID.TID 0000.0001) > precip_lon0        =   0.0000000D0,
(PID.TID 0000.0001) > precip_lon_inc     =   0.2812500D0,
(PID.TID 0000.0001) > precip_lat0        = -89.7848850D0,
(PID.TID 0000.0001) > precip_lat_inc     = 0.2786766D0,0.2803199D0,0.2806917D0,0.2808328D0,0.2809011D0,0.2809392D0,0.2809626D0,0.2809781D0,
(PID.TID 0000.0001) >                     0.2809888D0,0.2809965D0,0.2810023D0,0.2810067D0,0.2810102D0,0.2810129D0,0.2810151D0,
(PID.TID 0000.0001) >                     33*0.2810258D0,543*0.2810302D0,33*0.2810258D0,
(PID.TID 0000.0001) >                     0.2810151D0,0.2810129D0,0.2810102D0,0.2810067D0,0.2810023D0,0.2809965D0,0.2809888D0,0.2809781D0,
(PID.TID 0000.0001) >                     0.2809626D0,0.2809392D0,0.2809011D0,0.2808328D0,0.2806917D0,0.2803199D0,0.2786766D0,
(PID.TID 0000.0001) > precip_nlon        = 1280,
(PID.TID 0000.0001) > precip_nlat        = 640,
(PID.TID 0000.0001) >#
(PID.TID 0000.0001) > uwind_lon0        =   0.0000000D0,
(PID.TID 0000.0001) > uwind_lon_inc     =   0.2812500D0,
(PID.TID 0000.0001) > uwind_lat0        = -89.7848850D0,
(PID.TID 0000.0001) > uwind_lat_inc     = 0.2786766D0,0.2803199D0,0.2806917D0,0.2808328D0,0.2809011D0,0.2809392D0,0.2809626D0,0.2809781D0,
(PID.TID 0000.0001) >                     0.2809888D0,0.2809965D0,0.2810023D0,0.2810067D0,0.2810102D0,0.2810129D0,0.2810151D0,
(PID.TID 0000.0001) >                     33*0.2810258D0,543*0.2810302D0,33*0.2810258D0,
(PID.TID 0000.0001) >                     0.2810151D0,0.2810129D0,0.2810102D0,0.2810067D0,0.2810023D0,0.2809965D0,0.2809888D0,0.2809781D0,
(PID.TID 0000.0001) >                     0.2809626D0,0.2809392D0,0.2809011D0,0.2808328D0,0.2806917D0,0.2803199D0,0.2786766D0,
(PID.TID 0000.0001) > uwind_nlon        = 1280,
(PID.TID 0000.0001) > uwind_nlat        = 640,
(PID.TID 0000.0001) >#
(PID.TID 0000.0001) > vwind_lon0        =   0.0000000D0,
(PID.TID 0000.0001) > vwind_lon_inc     =   0.2812500D0,
(PID.TID 0000.0001) > vwind_lat0        = -89.7848850D0,
(PID.TID 0000.0001) > vwind_lat_inc     = 0.2786766D0,0.2803199D0,0.2806917D0,0.2808328D0,0.2809011D0,0.2809392D0,0.2809626D0,0.2809781D0,
(PID.TID 0000.0001) >                     0.2809888D0,0.2809965D0,0.2810023D0,0.2810067D0,0.2810102D0,0.2810129D0,0.2810151D0,
(PID.TID 0000.0001) >                     33*0.2810258D0,543*0.2810302D0,33*0.2810258D0,
(PID.TID 0000.0001) >                     0.2810151D0,0.2810129D0,0.2810102D0,0.2810067D0,0.2810023D0,0.2809965D0,0.2809888D0,0.2809781D0,
(PID.TID 0000.0001) >                     0.2809626D0,0.2809392D0,0.2809011D0,0.2808328D0,0.2806917D0,0.2803199D0,0.2786766D0,
(PID.TID 0000.0001) > vwind_nlon        = 1280,
(PID.TID 0000.0001) > vwind_nlat        = 640,
(PID.TID 0000.0001) >#
(PID.TID 0000.0001) > swdown_lon0        =   0.0000000D0,
(PID.TID 0000.0001) > swdown_lon_inc     =   0.2812500D0,
(PID.TID 0000.0001) > swdown_lat0        = -89.7848850D0,
(PID.TID 0000.0001) > swdown_lat_inc     = 0.2786766D0,0.2803199D0,0.2806917D0,0.2808328D0,0.2809011D0,0.2809392D0,0.2809626D0,0.2809781D0,
(PID.TID 0000.0001) >                     0.2809888D0,0.2809965D0,0.2810023D0,0.2810067D0,0.2810102D0,0.2810129D0,0.2810151D0,
(PID.TID 0000.0001) >                     33*0.2810258D0,543*0.2810302D0,33*0.2810258D0,
(PID.TID 0000.0001) >                     0.2810151D0,0.2810129D0,0.2810102D0,0.2810067D0,0.2810023D0,0.2809965D0,0.2809888D0,0.2809781D0,
(PID.TID 0000.0001) >                     0.2809626D0,0.2809392D0,0.2809011D0,0.2808328D0,0.2806917D0,0.2803199D0,0.2786766D0,
(PID.TID 0000.0001) > swdown_nlon        = 1280,
(PID.TID 0000.0001) > swdown_nlat        = 640,
(PID.TID 0000.0001) >#
(PID.TID 0000.0001) > lwdown_lon0        =   0.0000000D0,
(PID.TID 0000.0001) > lwdown_lon_inc     =   0.2812500D0,
(PID.TID 0000.0001) > lwdown_lat0        = -89.7848850D0,
(PID.TID 0000.0001) > lwdown_lat_inc     = 0.2786766D0,0.2803199D0,0.2806917D0,0.2808328D0,0.2809011D0,0.2809392D0,0.2809626D0,0.2809781D0,
(PID.TID 0000.0001) >                     0.2809888D0,0.2809965D0,0.2810023D0,0.2810067D0,0.2810102D0,0.2810129D0,0.2810151D0,
(PID.TID 0000.0001) >                     33*0.2810258D0,543*0.2810302D0,33*0.2810258D0,
(PID.TID 0000.0001) >                     0.2810151D0,0.2810129D0,0.2810102D0,0.2810067D0,0.2810023D0,0.2809965D0,0.2809888D0,0.2809781D0,
(PID.TID 0000.0001) >                     0.2809626D0,0.2809392D0,0.2809011D0,0.2808328D0,0.2806917D0,0.2803199D0,0.2786766D0,
(PID.TID 0000.0001) > lwdown_nlon        = 1280,
(PID.TID 0000.0001) > lwdown_nlat        = 640,
(PID.TID 0000.0001) >#
(PID.TID 0000.0001) > tidePot_lon0       = 0.0D0,
(PID.TID 0000.0001) > tidePot_lon_inc    = 1.0D0,
(PID.TID 0000.0001) > tidePot_lat0       = -90.0D0,
(PID.TID 0000.0001) > tidePot_lat_inc    = 180*1.0D0,
(PID.TID 0000.0001) > tidePot_nlon       = 360,
(PID.TID 0000.0001) > tidePot_nlat       = 181,
(PID.TID 0000.0001) >#
(PID.TID 0000.0001) > runoff_lon0       = 0.50D0,
(PID.TID 0000.0001) > runoff_lon_inc    = 1.0D0,
(PID.TID 0000.0001) > runoff_lat0       = -89.5D0,
(PID.TID 0000.0001) > runoff_lat_inc    = 179*1.,
(PID.TID 0000.0001) > runoff_nlon       = 360,
(PID.TID 0000.0001) > runoff_nlat       = 180,
(PID.TID 0000.0001) > &
(PID.TID 0000.0001) >#
(PID.TID 0000.0001) > &EXF_NML_OBCS
(PID.TID 0000.0001) >  obcsSstartdate1   = 20071215,
(PID.TID 0000.0001) >  obcsSstartdate2   = 060000,
(PID.TID 0000.0001) >  obcsSperiod       = 2629800.0,
(PID.TID 0000.0001) >#
(PID.TID 0000.0001) >  obcsNstartdate1   = 20071215,
(PID.TID 0000.0001) >  obcsNstartdate2   = 060000,
(PID.TID 0000.0001) >  obcsNperiod       = 2629800.0,
(PID.TID 0000.0001) > &
(PID.TID 0000.0001) 
(PID.TID 0000.0001) EXF_READPARMS: reading EXF_NML_01
(PID.TID 0000.0001) EXF_READPARMS: reading EXF_NML_02
(PID.TID 0000.0001) EXF_READPARMS: reading EXF_NML_03
(PID.TID 0000.0001) EXF_READPARMS: reading EXF_NML_04
(PID.TID 0000.0001) EXF_READPARMS: reading EXF_NML_OBCS
(PID.TID 0000.0001) EXF_READPARMS: finished reading data.exf
(PID.TID 0000.0001)  OBCS_READPARMS: opening data.obcs
(PID.TID 0000.0001)  OPEN_COPY_DATA_FILE: opening file data.obcs
(PID.TID 0000.0001) // =======================================================
(PID.TID 0000.0001) // Parameter file "data.obcs"
(PID.TID 0000.0001) // =======================================================
(PID.TID 0000.0001) ># ***************
(PID.TID 0000.0001) ># Open boundaries
(PID.TID 0000.0001) ># ***************
(PID.TID 0000.0001) > &OBCS_PARM01
(PID.TID 0000.0001) >OB_Jnorth = 1815*531,
(PID.TID 0000.0001) >OB_Jsouth = 1815*2,
(PID.TID 0000.0001) >#
(PID.TID 0000.0001) > useOBCSprescribe=.TRUE.,
(PID.TID 0000.0001) ># useOBCSsponge=.true.,
(PID.TID 0000.0001) > OBCS_monSelect = 3,
(PID.TID 0000.0001) ># >0: use 1rst O. upwind adv-scheme @ OB (=1: only if outflow)
(PID.TID 0000.0001) > OBCS_u1_adv_T = 1,
(PID.TID 0000.0001) > OBCS_u1_adv_S = 1,
(PID.TID 0000.0001) >#
(PID.TID 0000.0001) > OBSsFile='OBSs_1815x100x26.bin',
(PID.TID 0000.0001) > OBStFile='OBSt_1815x100x26.bin',
(PID.TID 0000.0001) > OBSuFile='OBSu_1815x100x26.bin',
(PID.TID 0000.0001) > OBSvFile='OBSv_1815x100x26.bin',
(PID.TID 0000.0001) >#
(PID.TID 0000.0001) > OBNsFile='OBNs_1815x100x26.bin',
(PID.TID 0000.0001) > OBNtFile='OBNt_1815x100x26.bin',
(PID.TID 0000.0001) > OBNuFile='OBNu_1815x100x26.bin',
(PID.TID 0000.0001) > OBNvFile='OBNv_1815x100x26.bin',
(PID.TID 0000.0001) ># Balancing
(PID.TID 0000.0001) > useOBCSbalance = .TRUE.,
(PID.TID 0000.0001) > OBCS_balanceFacN = -1,
(PID.TID 0000.0001) > OBCS_balanceFacS = -1,
(PID.TID 0000.0001) >## *****************************************
(PID.TID 0000.0001) >## Tidal BC parameters
(PID.TID 0000.0001) >## *****************************************
(PID.TID 0000.0001) > useOBCStides = .TRUE.,
(PID.TID 0000.0001) >##components   = M2       S2     N2       K2       K1      O1       P1       Q1       Mf         Mm
(PID.TID 0000.0001) >##periods (hr) = 12.4206  12     12.6583  11.9672  23.9345 25.8193  24.0659  26.8684  327.8599   661.31
(PID.TID 0000.0001) >##period(sec)  = 44714.165 43200.001 45570.054 43082.05 86164.077 92949.636 86637.2 96726.086 1180295.5 2380715.9
(PID.TID 0000.0001) >##components      m2        s2        n2        k2        k1        o1        p1        q1        mf        mm        m4        ms4       mn4
(PID.TID 0000.0001) >##period (hr): 12.420601 12.000000 12.658348 11.967236 23.934466 25.819343 24.065889 26.868357 327.859874 661.309962 6.210303 6.103339 6.269178
(PID.TID 0000.0001) >##period (s):  44714.165192 43200.001287 45570.053512 43082.050319 86164.077005 92949.635701 86637.199772 96726.085703 1180295.545550 2380715.863587 22357.090551 21972.021930 22569.042448
(PID.TID 0000.0001) > tidalPeriod  = 44714.165 43200.001 45570.054 43082.050 86164.077 92949.636 86637.200 96726.086 1180295.546 2380715.864 22357.091 21972.022 22569.042,
(PID.TID 0000.0001) > OBSamFile='OBSvam_1815x13.bin',
(PID.TID 0000.0001) > OBNamFile='OBNvam_1815x13.bin',
(PID.TID 0000.0001) > OBSphFile='OBSvph_1815x13.bin',
(PID.TID 0000.0001) > OBNphFile='OBNvph_1815x13.bin',
(PID.TID 0000.0001) > &
(PID.TID 0000.0001) ># *****************************************
(PID.TID 0000.0001) ># Sponge Layer Parameters.
(PID.TID 0000.0001) ># *****************************************
(PID.TID 0000.0001) > &OBCS_PARM03
(PID.TID 0000.0001) ># Urelaxobcsinner=2629800.E0,
(PID.TID 0000.0001) ># Urelaxobcsbound=43200.E0,
(PID.TID 0000.0001) >#
(PID.TID 0000.0001) ># Vrelaxobcsinner=2629800.E0,
(PID.TID 0000.0001) ># Vrelaxobcsbound=43200.E0,
(PID.TID 0000.0001) >#
(PID.TID 0000.0001) ># spongeThickness=16,
(PID.TID 0000.0001) > &
(PID.TID 0000.0001) 
(PID.TID 0000.0001)  OBCS_READPARMS: finished reading data.obcs
(PID.TID 0000.0001)  OB_indexUnset = /* unset OB index value (i.e. no OB) */
(PID.TID 0000.0001)                       0
(PID.TID 0000.0001)     ;
(PID.TID 0000.0001)  Northern OB global indices : OB_Jnorth =
(PID.TID 0000.0001)  1815 @      531                            /* I =  1:*** */
(PID.TID 0000.0001)  Southern OB global indices : OB_Jsouth =
(PID.TID 0000.0001)  1815 @        2                            /* I =  1:*** */
(PID.TID 0000.0001)  Eastern  OB global indices : OB_Ieast =
(PID.TID 0000.0001)   532 @        0                            /* J =  1:532 */
(PID.TID 0000.0001)  Western  OB global indices : OB_Iwest =
(PID.TID 0000.0001)   532 @        0                            /* J =  1:532 */
(PID.TID 0000.0001) 
(PID.TID 0000.0001)  KPP_READPARMS: opening data.kpp
(PID.TID 0000.0001)  OPEN_COPY_DATA_FILE: opening file data.kpp
(PID.TID 0000.0001) // =======================================================
(PID.TID 0000.0001) // Parameter file "data.kpp"
(PID.TID 0000.0001) // =======================================================
(PID.TID 0000.0001) ># KPP parameters
(PID.TID 0000.0001) > &KPP_PARM01
(PID.TID 0000.0001) >### KPPmixingMaps   = .FALSE.,
(PID.TID 0000.0001) >### KPPwriteState   = .FALSE.,
(PID.TID 0000.0001) >### kpp_dumpFreq    = 0.,
(PID.TID 0000.0001) >### kpp_tavefreq    = 0.,
(PID.TID 0000.0001) >### Ricr            = 0.3559,
(PID.TID 0000.0001) >### Riinfty         = 0.6998,
(PID.TID 0000.0001) > &
(PID.TID 0000.0001) 
(PID.TID 0000.0001)  KPP_READPARMS ; starts to read KPP_PARM01
(PID.TID 0000.0001)  KPP_READPARMS ; read KPP_PARM01 : OK
(PID.TID 0000.0001)  KPP_READPARMS: finished reading data.kpp
(PID.TID 0000.0001)  DIAGNOSTICS_READPARMS: opening data.diagnostics
(PID.TID 0000.0001)  OPEN_COPY_DATA_FILE: opening file data.diagnostics
(PID.TID 0000.0001) // =======================================================
(PID.TID 0000.0001) // Parameter file "data.diagnostics"
(PID.TID 0000.0001) // =======================================================
(PID.TID 0000.0001) ># Diagnostic Package Choices
(PID.TID 0000.0001) >#-----------------
(PID.TID 0000.0001) ># for each output-stream:
(PID.TID 0000.0001) >#  filename(n) : prefix of the output file name (only 8.c long) for outp.stream n
(PID.TID 0000.0001) >#  frequency(n):< 0 : write snap-shot output every multiple of |frequency| (iter)
(PID.TID 0000.0001) >#               > 0 : write time-average output every multiple of frequency (iter)
(PID.TID 0000.0001) >#  levels(:,n) : list of levels to write to file (Notes: declared as REAL)
(PID.TID 0000.0001) >#                 when this entry is missing, select all common levels of this list
(PID.TID 0000.0001) >#  fields(:,n) : list of diagnostics fields (8.c) (see "available_diagnostics" file
(PID.TID 0000.0001) >#                 for the list of all available diag. in this particular config)
(PID.TID 0000.0001) >#--------------------------------------------------------------------
(PID.TID 0000.0001) >#
(PID.TID 0000.0001) > &diagnostics_list
(PID.TID 0000.0001) >#
(PID.TID 0000.0001) >   dumpatlast = .TRUE.,
(PID.TID 0000.0001) >#
(PID.TID 0000.0001) >#---
(PID.TID 0000.0001) >  frequency(1) = 3600.0,
(PID.TID 0000.0001) >   fields(1:5,1) = 'ETAN', 'oceTAUX', 'oceTAUY', 'EXFuwind', 'EXFvwind',
(PID.TID 0000.0001) >   filename(1) = 'diags/surface',
(PID.TID 0000.0001) >#---
(PID.TID 0000.0001) >  frequency(2) = 2592000.0,
(PID.TID 0000.0001) >   fields(1:9,2)='THETA','SALT','UVEL','VVEL','WVEL','UVELSQ','VVELSQ','WTHMASS','WSLTMASS',
(PID.TID 0000.0001) >   filename(2) = 'diags/interior',
(PID.TID 0000.0001) >#   levels(1:55,2) =  1., 2., 3., 4., 5., 6., 7., 8., 9.,10.,11.,13.,15.,
(PID.TID 0000.0001) >#                     17.,19.,21.,23.,25.,27.,29.,31.,33.,35.,37.,39.,41.,43.,45.,
(PID.TID 0000.0001) >#                     47.,49.,51.,53.,55.,57.,59.,61.,63.,65.,67.,69.,71.,73.,75.,
(PID.TID 0000.0001) >#                     77.,79.,81.,83.,85.,87.,89.,91.,93.,95.,97.,99.,
(PID.TID 0000.0001) > /
(PID.TID 0000.0001) >#
(PID.TID 0000.0001) >#
(PID.TID 0000.0001) ># Parameter for Diagnostics of per level statistics:
(PID.TID 0000.0001) >#-----------------
(PID.TID 0000.0001) ># for each output-stream:
(PID.TID 0000.0001) >#  stat_fname(n) : prefix of the output file name (only 8.c long) for outp.stream n
(PID.TID 0000.0001) >#  stat_freq(n):< 0 : write snap-shot output every |stat_freq| seconds
(PID.TID 0000.0001) >#               > 0 : write time-average output every stat_freq seconds
(PID.TID 0000.0001) >#  stat_phase(n)    : write at time = stat_phase + multiple of |stat_freq|
(PID.TID 0000.0001) >#  stat_region(:,n) : list of "regions" (default: 1 region only=global)
(PID.TID 0000.0001) >#  stat_fields(:,n) : list of diagnostics fields (8.c) (see "available_diagnostics.log"
(PID.TID 0000.0001) >#                 file for the list of all available diag. in this particular config)
(PID.TID 0000.0001) >#-----------------
(PID.TID 0000.0001) > &DIAG_STATIS_PARMS
(PID.TID 0000.0001) ># diagSt_regMaskFile='basin_masks_eccollc_90x50.bin',
(PID.TID 0000.0001) ># nSetRegMskFile=1,
(PID.TID 0000.0001) ># set_regMask(1)= 1,  1,  1,  1,  1,  1,  1,  1,  1,
(PID.TID 0000.0001) >#                 1,  1,  1,  1,  1,  1,  1,  1
(PID.TID 0000.0001) ># val_regMask(1)= 1., 2., 3., 4., 5., 6., 7., 8., 9.,
(PID.TID 0000.0001) >#                10.,11.,12.,13.,14.,15.,16.,17.
(PID.TID 0000.0001) >##---
(PID.TID 0000.0001) ># stat_fields(1,1)= 'ETAN    ','ETANSQ  ','DETADT2 ',
(PID.TID 0000.0001) >#                   'UVEL    ','VVEL    ','WVEL    ',
(PID.TID 0000.0001) >#                   'THETA   ','SALT    ',
(PID.TID 0000.0001) >#    stat_fname(1)= 'dynStDiag',
(PID.TID 0000.0001) >#     stat_freq(1)= 3153600.,
(PID.TID 0000.0001) ># stat_region(1,1)=  1, 2, 3, 4, 5, 6, 7, 8, 9,
(PID.TID 0000.0001) >#                   10,11,12,13,14,15,16,17
(PID.TID 0000.0001) >##---
(PID.TID 0000.0001) ># stat_fields(1,2)= 'oceTAUX ','oceTAUY ',
(PID.TID 0000.0001) >#                   'surForcT','surForcS','TFLUX   ','SFLUX   ',
(PID.TID 0000.0001) >#                   'oceQnet ','oceSflux','oceFWflx',
(PID.TID 0000.0001) >#    stat_fname(2)= 'surfStDiag',
(PID.TID 0000.0001) >#     stat_freq(2)= 3153600.,
(PID.TID 0000.0001) ># stat_region(1,2)=  1, 2, 3, 4, 5, 6, 7, 8, 9,
(PID.TID 0000.0001) >#                   10,11,12,13,14,15,16,17
(PID.TID 0000.0001) > /
(PID.TID 0000.0001) 
(PID.TID 0000.0001) S/R DIAGNOSTICS_READPARMS, read namelist "diagnostics_list": start
(PID.TID 0000.0001) S/R DIAGNOSTICS_READPARMS, read namelist "diagnostics_list": OK
(PID.TID 0000.0001) S/R DIAGNOSTICS_READPARMS, read namelist "DIAG_STATIS_PARMS": start
(PID.TID 0000.0001) S/R DIAGNOSTICS_READPARMS, read namelist "DIAG_STATIS_PARMS": OK
(PID.TID 0000.0001)  DIAGNOSTICS_READPARMS: global parameter summary:
(PID.TID 0000.0001)  dumpAtLast = /* always write time-ave diags at the end */
(PID.TID 0000.0001)                   T
(PID.TID 0000.0001)     ;
(PID.TID 0000.0001)  diag_mnc =   /* write NetCDF output files */
(PID.TID 0000.0001)                   F
(PID.TID 0000.0001)     ;
(PID.TID 0000.0001)  useMissingValue = /* put MissingValue where mask = 0 */
(PID.TID 0000.0001)                   F
(PID.TID 0000.0001)     ;
(PID.TID 0000.0001)  diagCG_maxIters = /* max number of iters in diag_cg2d */
(PID.TID 0000.0001)                    1000
(PID.TID 0000.0001)     ;
(PID.TID 0000.0001)  diagCG_resTarget = /* residual target for diag_cg2d */
(PID.TID 0000.0001)                 1.000000000000000E-07
(PID.TID 0000.0001)     ;
(PID.TID 0000.0001)  diagCG_pcOffDFac = /* preconditioner off-diagonal factor */
(PID.TID 0000.0001)                 9.611687812379854E-01
(PID.TID 0000.0001)     ;
(PID.TID 0000.0001) -----------------------------------------------------
(PID.TID 0000.0001)  DIAGNOSTICS_READPARMS: active diagnostics summary:
(PID.TID 0000.0001) -----------------------------------------------------
(PID.TID 0000.0001) Creating Output Stream: diags/surface
(PID.TID 0000.0001) Output Frequency:       3600.000000 ; Phase:           0.000000
(PID.TID 0000.0001)  Averaging Freq.:       3600.000000 , Phase:           0.000000 , Cycle:   1
(PID.TID 0000.0001)  missing value: -9.990000000000E+02
(PID.TID 0000.0001)  Levels:    will be set later
(PID.TID 0000.0001)  Fields:    ETAN     oceTAUX  oceTAUY  EXFuwind EXFvwind
(PID.TID 0000.0001) Creating Output Stream: diags/interior
(PID.TID 0000.0001) Output Frequency:    2592000.000000 ; Phase:           0.000000
(PID.TID 0000.0001)  Averaging Freq.:    2592000.000000 , Phase:           0.000000 , Cycle:   1
(PID.TID 0000.0001)  missing value: -9.990000000000E+02
(PID.TID 0000.0001)  Levels:    will be set later
(PID.TID 0000.0001)  Fields:    THETA    SALT     UVEL     VVEL     WVEL     UVELSQ   VVELSQ   WTHMASS  WSLTMASS
(PID.TID 0000.0001) -----------------------------------------------------
(PID.TID 0000.0001)  DIAGNOSTICS_READPARMS: statistics diags. summary:
(PID.TID 0000.0001) -----------------------------------------------------
(PID.TID 0000.0001) 
(PID.TID 0000.0001) SET_PARMS: done
(PID.TID 0000.0001)  MDS_READVEC_LOC: open file: delYFile
(PID.TID 0000.0001) S/R LOAD_GRID_SPACING: delY loaded from file: delYFile
(PID.TID 0000.0001) Enter INI_VERTICAL_GRID: setInterFDr=    T ; setCenterDr=    F
(PID.TID 0000.0001) %MON XC_max                       =  -5.9791692097973E+00
(PID.TID 0000.0001) %MON XC_min                       =  -8.1562502543132E+01
(PID.TID 0000.0001) %MON XC_mean                      =  -4.3137201855846E+01
(PID.TID 0000.0001) %MON XC_sd                        =   2.0424998826490E+01
(PID.TID 0000.0001) %MON XG_max                       =  -6.0000025431306E+00
(PID.TID 0000.0001) %MON XG_min                       =  -8.1583335876465E+01
(PID.TID 0000.0001) %MON XG_mean                      =  -4.3158035189179E+01
(PID.TID 0000.0001) %MON XG_sd                        =   2.0424998826490E+01
(PID.TID 0000.0001) %MON DXC_max                      =   4.1321680787049E+03
(PID.TID 0000.0001) %MON DXC_min                      =   3.3626505081640E+03
(PID.TID 0000.0001) %MON DXC_mean                     =   3.7688379354867E+03
(PID.TID 0000.0001) %MON DXC_sd                       =   2.2123866065857E+02
(PID.TID 0000.0001) %MON DXF_max                      =   4.1321680787049E+03
(PID.TID 0000.0001) %MON DXF_min                      =   3.3626505081640E+03
(PID.TID 0000.0001) %MON DXF_mean                     =   3.7688379354867E+03
(PID.TID 0000.0001) %MON DXF_sd                       =   2.2123866065857E+02
(PID.TID 0000.0001) %MON DXG_max                      =   4.1327922661025E+03
(PID.TID 0000.0001) %MON DXG_min                      =   3.3634327493196E+03
(PID.TID 0000.0001) %MON DXG_mean                     =   3.7695610776573E+03
(PID.TID 0000.0001) %MON DXG_sd                       =   2.2119398199636E+02
(PID.TID 0000.0001) %MON DXV_max                      =   4.1327922661025E+03
(PID.TID 0000.0001) %MON DXV_min                      =   3.3634327493196E+03
(PID.TID 0000.0001) %MON DXV_mean                     =   3.7695610776573E+03
(PID.TID 0000.0001) %MON DXV_sd                       =   2.2119398199636E+02
(PID.TID 0000.0001) %MON YC_max                       =   4.3456317901611E+01
(PID.TID 0000.0001) %MON YC_min                       =   2.6872378349304E+01
(PID.TID 0000.0001) %MON YC_mean                      =   3.5275583727019E+01
(PID.TID 0000.0001) %MON YC_sd                        =   4.7474247172398E+00
(PID.TID 0000.0001) %MON YG_max                       =   4.3442249298096E+01
(PID.TID 0000.0001) %MON YG_min                       =   2.6855293273926E+01
(PID.TID 0000.0001) %MON YG_mean                      =   3.5259938400870E+01
(PID.TID 0000.0001) %MON YG_sd                        =   4.7482908185653E+00
(PID.TID 0000.0001) %MON DYC_max                      =   3.7984208896988E+03
(PID.TID 0000.0001) %MON DYC_min                      =   3.1290718017248E+03
(PID.TID 0000.0001) %MON DYC_mean                     =   3.4788279395744E+03
(PID.TID 0000.0001) %MON DYC_sd                       =   1.9225943821366E+02
(PID.TID 0000.0001) %MON DYF_max                      =   3.7989510252033E+03
(PID.TID 0000.0001) %MON DYF_min                      =   3.1282235849176E+03
(PID.TID 0000.0001) %MON DYF_mean                     =   3.4788156621358E+03
(PID.TID 0000.0001) %MON DYF_sd                       =   1.9277710102670E+02
(PID.TID 0000.0001) %MON DYG_max                      =   3.7989510252033E+03
(PID.TID 0000.0001) %MON DYG_min                      =   3.1282235849176E+03
(PID.TID 0000.0001) %MON DYG_mean                     =   3.4788156621358E+03
(PID.TID 0000.0001) %MON DYG_sd                       =   1.9277710102670E+02
(PID.TID 0000.0001) %MON DYU_max                      =   3.7984208896988E+03
(PID.TID 0000.0001) %MON DYU_min                      =   3.1290718017248E+03
(PID.TID 0000.0001) %MON DYU_mean                     =   3.4788279395744E+03
(PID.TID 0000.0001) %MON DYU_sd                       =   1.9225943821366E+02
(PID.TID 0000.0001) %MON RA_max                       =   1.5697903926271E+07
(PID.TID 0000.0001) %MON RA_min                       =   1.0519122521772E+07
(PID.TID 0000.0001) %MON RA_mean                      =   1.3153740588860E+07
(PID.TID 0000.0001) %MON RA_sd                        =   1.4919356433086E+06
(PID.TID 0000.0001) %MON RAW_max                      =   1.5697903926271E+07
(PID.TID 0000.0001) %MON RAW_min                      =   1.0519122521772E+07
(PID.TID 0000.0001) %MON RAW_mean                     =   1.3153740588860E+07
(PID.TID 0000.0001) %MON RAW_sd                       =   1.4919356433086E+06
(PID.TID 0000.0001) %MON RAS_max                      =   1.5693341326465E+07
(PID.TID 0000.0001) %MON RAS_min                      =   1.0524423130684E+07
(PID.TID 0000.0001) %MON RAS_mean                     =   1.3156063218928E+07
(PID.TID 0000.0001) %MON RAS_sd                       =   1.4887747834009E+06
(PID.TID 0000.0001) %MON RAZ_max                      =   1.5693341326465E+07
(PID.TID 0000.0001) %MON RAZ_min                      =   1.0524423130684E+07
(PID.TID 0000.0001) %MON RAZ_mean                     =   1.3156063218928E+07
(PID.TID 0000.0001) %MON RAZ_sd                       =   1.4887747834009E+06
(PID.TID 0000.0001) %MON AngleCS_max                  =   1.0000000000000E+00
(PID.TID 0000.0001) %MON AngleCS_min                  =   1.0000000000000E+00
(PID.TID 0000.0001) %MON AngleCS_mean                 =   1.0000000000000E+00
(PID.TID 0000.0001) %MON AngleCS_sd                   =   1.1102230246252E-16
(PID.TID 0000.0001) %MON AngleSN_max                  =   0.0000000000000E+00
(PID.TID 0000.0001) %MON AngleSN_min                  =   0.0000000000000E+00
(PID.TID 0000.0001) %MON AngleSN_mean                 =   0.0000000000000E+00
(PID.TID 0000.0001) %MON AngleSN_sd                   =   0.0000000000000E+00
(PID.TID 0000.0001)  MDS_READ_FIELD: opening global file: bathy.bin
(PID.TID 0000.0001) // =======================================================
(PID.TID 0000.0001) // Field Model R_low (ini_masks_etc)
(PID.TID 0000.0001) // CMIN =         -5.628649414062500E+03
(PID.TID 0000.0001) // CMAX =         -5.000000000000000E+00
(PID.TID 0000.0001) // CINT =          2.082833116319445E+02
(PID.TID 0000.0001) // SYMBOLS (CMIN->CMAX): -abcdefghijklmnopqrstuvwxyz+
(PID.TID 0000.0001) //                  0.0: .
(PID.TID 0000.0001) // RANGE I (Lo:Hi:Step):(    -3:   334:     1)
(PID.TID 0000.0001) // RANGE J (Lo:Hi:Step):(    32:    -3:    -1)
(PID.TID 0000.0001) // RANGE K (Lo:Hi:Step):(   1:   1:   1)
(PID.TID 0000.0001) // =======================================================
(PID.TID 0000.0001) K =   1
(PID.TID 0000.0001) //                I=6       I=16      I=26      I=36      I=38      I=48      I=58      I=68      I=70      I=80      I=90      I=100     I=102     I=112     I=122     I=132     I=134     I=144     I=154     I=164     I=166     I=176     I=186     I=196     I=198     I=208     I=218     I=228     I=230     I=240     I=250     I=260     I=262     I=272     I=282     I=292     I=294     I=304     I=314     I=324     I=334
(PID.TID 0000.0001) // |--J--|321012345|789012345|789012345|789012345|701234567|901234567|901234567|901234567|903456789|123456789|123456789|123456789|123678901|345678901|345678901|345678901|345690123|567890123|567890123|567890123|567892345|789012345|789012345|789012345|789012567|901234567|901234567|901234567|901234589|123456789|123456789|123456789|123456781|345678901|345678901|345678901|345678901|567890123|567890123|567890123|567890123|
(PID.TID 0000.0001) //     32 ..............................+++++++++++++++++++++zzzyyyyxwwwwxxxxxxxxxwwwwwwwwwwwwwwwwwwwwwvvvvvvvvvvvvvvvvvvvvvvvvuuuuuuvvuuuuuuuuuuvvvvuuvuuuusqhdcccccccccccccccccccccccccdcccccccccccccdcccccccddddddddddddddddddddeeeeeefffeeeeeeeeeeeeeeeeddddeeeedddddddddccccccccccccccccddccccccccccccccccccbbbbabbaaaaa---aaaaaaaaa---aaaaaa--aaaaaaaaaaaa--------------aa--aaaaaaabbaaaaaabbaaaabbbaaabbbbbaabcdccbcbddcbbbbc
(PID.TID 0000.0001) //     31 ...............................++++++++++++++++++++zzzyyyyxxwwwxxxxxxxxxxwwwwwwwwwwwwwwwwwwwwvvvvvvvvvvvvvvvvvvvvvvvuuuuuuuvuuuuuuuuuuuuvvvvvvuuustngdcccdcddddccccddddccccdddddcccccccccccccdcdcccccdddddddddddddddddddddeeeeffffeeeeeeeeeeeeeeeeddddeeeeddddddddddcccccccccccccccddddccccccccccccccccbbbbaaaaaaaaa--aaaaaaaaaa--a--aaa--a--aaaaaaaaa--------------a--aaaaaaaabaaaaaaabaaaabbbbaaaabbbbbabccccbbcdcbbbbbb
(PID.TID 0000.0001) //     30 ...............................++++++++++++++++++++zzzyyyyxxwwwxxxxxxxxxxxwwwwwwwwwwwwwwwwwwwvvvvvvvvvvvvvvvvvvvvvuuuuuuuuuuuuuuuuuuvvuuuuuuvvuuutpgedccdddddddccccddddccccddcccccccccccccccdddddccccdddddddddddddddddddddeeeffffffeeeeeeeeeeeeeeeddddeeeeddddddddddcccccccdccccccddddcccccccccccccccccbbbbaaaaaaaaa--aaaaaaaaaaaaa--aaaaaa--aaaaaaaaaa--------a----aa--aaaaaaaaaaaaaaaaaaaabbbbaaaabbbbbbbbbccbcedbbbbbbc
(PID.TID 0000.0001) //     29 ...............................++++++++++++++++++++zzzyyyyxxwwwxxxxxxxxxxxxwwwwwwwxwwwwwwwwwwwvvvvvvvvvvvvvvvvvvvuuuuuuuvvuuuuuuvvuuvvvuuuuuuvuuutojecccccccddddccccddddcccccccccccccccccccddddddddddddddddddddddddddddddeeeeefffffeeeeeeeeeeeeeeeddddeeeedddddddddccccccccdddddccddddcccccccccccccccccbbbbaaaaaaaa-----aaaaaaaaaaaa----aaaa----aaaaaaaaaaaa---a--aaaa-aaaaaaaaaaaaaaaaaaaabbbbbbaaabbbbbbbbbbbbdebbbbbbbc
(PID.TID 0000.0001) //     28 ................................+++++++++++++++++++zzzyyyyxxwwxxxxxxxxxxxxxxwwwwwwxxwwwwwwwwwwvvvvvvvvvvvvvvvvvvuuuuuuuuuvuuuuuuuvuuvvvvuuuuuvuuttolfcccccccddddccccddddcccccccccccccccdcccddddcddddddddddddddddddddddddeeeeeefffffeeeeeeeeeeeeeedddddeeeddddddddddccccccccddddddddddccccccccccccccccccbbbbaaaaaa-----aa----aaaaaaaa-a--aaaa-a----aaaaaaaaa------aaa---aaaaaaaaaaaaaaaaaababbbbbbabbbbbbbbbbbbbbcdbbbbbbcc
(PID.TID 0000.0001) //     27 ................................+++++++++++++++++++zzzyyyyxxxxxxxxxxxxxxxxxxxwwwwwxxxwwwwwwwwwvvvvvvvvvvvvvvvvvuuuuuuuuuuvvuuuuuuvvvvvvvuuuuvvuustqnhdccccccdddddcccdddddcccccdddcccccdcccccddddddddddddddddddddddddddedeeeeeefffffeeeeeeeeeeeeeedddddeeeddddddddccccccccdddddddddccccccccccccbcccccccbbbbbaaaaa----aaaaa-----aaaaaaaaa-aaaaaaa---aaaaaaaa----------a--aaaaabaaaaaaabaaaababbbbbbbbbbbbbbbbbbbbbbcbbbbbccc
(PID.TID 0000.0001) //     26 .................................++++++++++++++++++zzzyyyyxxxxxxxxxxxxxxxxxxxxwwwwxxxxwwwwwwwwwvvvvvvvvvvvvvvvvuuuuuuuuuuvvuuuuuuvvvvvvvuuuuuvuututpjdcccccccdddddddcdddddddcdddddccdddccdddddcccdddddddddddddddddddddedeeeeefffffeeeeeeeeeeeeeeddddddeedddddddccccccccddddddddddddcccccccccccbcccccccbbbbbaaaaa---aaaaaaa-----aaaaaaaa-aaaaaaa----aaaaaaa--aaa--------aaaaaaaabbaaaaaabbaaabbbbbbbbbbbbbbbbbbabbcbbbbcccc
(PID.TID 0000.0001) //     25 .................................++++++++++++++++++zzzyyyyxxxxxxxxxxyyyxxxxxxxxwwwxxxxxwwwwwwwwvvvvvvvvvvvvvvvuuuuuttuuuuvvttuuuuvvvvvvvuuuuuuuuuutrkdcbcccccdddddddcddddddddddddddddddcdddddddccddddddddddddddddddddddddeeeefffffeeeeeeeeeeeddedddddddedddddddccccccccdddddddddddccccccccccccbcccccccbbbbaaaaaa---aaaaaaa-------aaa-aa--aaa-aa------a--aa--aaa--------aaaaaaaaaaaaaaaaaaaaabbbbbbbbbbbbabbbbbbbbbbbbbcccc
(PID.TID 0000.0001) //     24 .................................++++++++++++++++++zzzyyyyxxxxxxxxxyyyyyyyxxxxxxwwxxxxxxwwwwwwwwvvvvvvvvvvvvuuuuuuuttuuuuvvttuuuuvvvvvvvuuuuuuuutttrlecbbccccdddddddcddddddddddddddddddcdddddddddddddddddddddddddddddddddeeeffffffeeeeeeeeeeedeeddddddeeddddddcccccccdcddddcdddddcccccccccccccbcccccccbbbbbaaaaaa-aaaaaaaaa------aa---aa-aa---aa-----a-aa-------------aaaaaaaaaaaaaaaaaaaaabbbbbbbbbbbbbbbbbbabbbbbbbbcccc
(PID.TID 0000.0001) //     23 ..................................+++++++.+++++++++zzzyyyyxxxxxxxxxyyyyyyyyyxxxxxwyyxxxxxwwwwwwwvvvvvvvvvvvuuuuuuuutttuuuvvtttuuuvvvvvuuuuuuuuuutttpjecbccccccddddddccddddddddddddddddddddddddddddddddddddddddddddddddddeeeeffffffeeeeeeeeedeeeddddddceddddddccccccccdcddddccddcccccccccccccccbcccccccbbbbaaaaaaaaaaaaaaaaa-------a----a--a----a-aaa-aaaa---------aaaaaaaaaaaaabbaaaaaabbbbabbbbbaabbbbbbbbbcbbbbbbbbbcccc
(PID.TID 0000.0001) //     22 ..................................+++++++.+++++++++zzzyyyyxxxxxxxxxyyyyyyyyyyyxxxxyyyyxxxxxwwwwwwvvvvvvvvvuuuuuuuuutttuuuvvtttuuuvvvvuuuuuvuuuuttsrlhdccccccccddddddccddddddddddddddddddddddddddddddddddddeeedddddeeedddeeeeffffffeeeeeeeedeeeedddddddedddddddcccccccccccccdccccccccccccccccccbcccccccbbbbaaaaaaaaaaaaaaaaaa-----aaa-----aaa----aaaa-aaaa---------a--aaaaabaabbbaabaabbbaababbbaaaaabbbbaaabbbbbbbbbbbbccc
(PID.TID 0000.0001) //     21 ..................................+++++++.+++++++++zzzyyyyxxxxxxxxxyyyyyyyyyyyyyxxyyyyyyxxxxwwwwwvvvvvvvvvuuuuuuuuuttttuuuvttttuuuvvvvuuuuuuuuutsqmheddcccccccddddddccddddddddddddddddddddddddddddddddddddeeedddddeeeddeeeefffffffeeeeeeeedeeeddddcccdddddcccddcccccccccccccccccccccccccccccccbcccccccbbbbaaaaaaaaaaaaaaaaaa-----aaaaa---aaaaa---aaa--aaa------------aaaaaabbbbbaaabbbbbabaabbbbaaaabbbbaabcbbabbbbbbbbccc
(PID.TID 0000.0001) //     20 ...................................++++++..++++++++zzzyyyyxxxxxxxxxyyyyzyyyyyyyyyyyyyyyyyyxxxwwwwwvvvvvvvvuuuuuuuuuttttuuuvttttuuuvvvvvuuuuuuuttrqlfeedddcccccddddddccddddddddddddddddddddddddcdddddddddddeeddddddeedddeeeeffgffffeeeeeedeeeeeddddcccdddddcccdcccccccccccccccccccccccccccccccbbccccccbbbbbaaaaaaaaaaaaaaaaaa----aaaaaa--aaaaaa--------aa--aa--------aaaaaaaabaaaaaaabaaaaaaabbbbaaabbbbaaadcbbbbbbbbcbcccc
(PID.TID 0000.0001) //     19 ..................................+++++++.+++++++++zzzyyyyxwwxxxxxxyyyzzzyyyyyyyyyyyyyyyyyyyxxxwwwwvvvvvvvuuvuuuuuttttttuuutttttuuuuvvvuuuuuuuutttqkgeeedcccdcdddddddcddddddddddddddddddddddddcdddddddddddddddddddddddeeeeeffgffffeeeeeeeeeeedddcccdccddcccdccccccccccccccccccccccccccccccccbbbcccccbbbbbbaaaaaaaaaaaaaaaaaa---aaaaaaa--aaaaaa--aa-----a-aaaa--aaaa--aaaaaaaaaaaaaaaaaaaabaabbbbaaabbbbaaabaabbbbbbbcccccc
(PID.TID 0000.0001) //     18 ..................................+++++++.+++++++++zzzyyyyxxwxxxxxxyyyzzzzzzzzzyyyzzzzzyyyyyyxxxxwwwvvvvvvvvvvuuttttttttuuutttttuuuvvvvvuutttuuttusphfeddccdcccdddddcccddddddddddddddddddddddddddddddddddddddddddddddeeeeeeffffffeeeeeeeeeeeddddccccccddcccccccccccccccccccccccccccccccccccbbbbccccbbbbbbbbaaaaaaaaaaaaaaaa----aaaaaaa-aaaaaaa-aaa--------aaaaaaaa---aaaaaaaaaaaaaaaaaaaabbbaabaaabbabbbbaaaabbbbbbbbccccc
(PID.TID 0000.0001) //     17 ...................................++++++..++++++++zzzyyyyxwwxxxxxxyyzzzzzzzzzzzzzzzzzzzzzyyyyyxxxxwwvvvvvvvvvvuuuuuttttuuuuttttuuuuuvvvvuuuuuuttutqjgeddccccccdddddcccdddddddddddddddddddddddddedddddddddeeddddddeedeeeeefffffffeeeeeeeeeeedddddcdcccdddcdcccccccccccccccccccccccccccccbccbbbbcbccbbbbbbbbbaaaaaaaaaaaaaaa---aaaaaaaa--aaaaaa----------a-a----aa---aaaaaababbbbbababbbbbbbaaaaaaabaaabbbaaabbbbbbbbbccccc
(PID.TID 0000.0001) //     16 ...................................++++++..++++++++zzzyyyxxwwwxxxxxyyz+++++++++++z+++++++zzzzyyyyxxxwwwvvvvvvvvvuuuuuttuuuuuuttuuuuuvuvvvuuuuuuttttqmifddcccccccddddccccdddddddddddddddddddddddeeeddddddddeeedddddeeeeeeefffffffeeeeeeeeeeeeddddddddccddddddccccccccccccccccccccccccccccbbbbbbbcbbbbbbbbbbbaaaaaaaaaaaaaaaa--aaaaaaaa---aaaaa---aa--a--------------aaaaaaabbabbbbabbabbbbbaaabaaaaaaaaabccaabbbbbbbbbbbccc
(PID.TID 0000.0001) //     15 ....................................+++++...+++++++zzzyyyxxxxxxxxxxyyz++++++++++++++++++++++zzzyyyyxxwwwwvwvvvvvvvuuuuuuuuuuuuuuuuuuuuuuuuuuuuuttttspkgedcccccccddddccccdddddddddddddddddddddddeeeeeddededeeedededeeeeeeeffffffeeeeeeeedeeeeddddddddccddddddccccccccccccccccccccccccccccbbbbbbbcbbbbbbbbbbbaaaaaaaaaaaaaaaa--aaaaaaa----aaaa------a------aa-------aaaaaaabaaaaaabbaaaaaabbbaaaaaaaaaaabbbcbbbbbbbbcbbbbbcc
(PID.TID 0000.0001) //     14 ....................................+++++...+++++++zzzyyyxxxwxxxxxxyyz+++++++++++++++++++++++++zzzyyxxxxwwwwvvvvvvvuuuuuuuuuuuuuuuuuuuuuuuuuuuttstssrlgedddcccccddddccccddddddddddddddddddddddeeeeeeeeeeeeeeeeeeeeeeeeeefffffffeeeeeeddddededdddddddccddddddccccccccccccccccccccccccccccbbbbbbbcbbbbbbbbbbbaaaaaaaaaaaaaaa----aaaaa-----aaa-------aa------aa------aaaaaaaabaaaaababaaaaabbbaaaaaaaaaaabbbbbbbbbbbbcbbbbbbc
(PID.TID 0000.0001) //     13 .....................................++++....++++++zzzyyyxxwwwxxxxxyyz+++++++++++++++++++++++++++zzzyyxxxxwwwwvvvvvuuuuuuuuuuuuuuuuuuuuuuuuutttssssspieddddccccccdddcccccdddddddddddddddddddddeeeeeeddeeeeeeedeeeeeeeeefffffffffeeeedddddeedddddddddccddddddcccccccccccccccccccccccccccbbbbbbbbbbbbbbbbbbbbaaaaaaaaaaaaaaa----aaa-------a----------a------------a--aaaaaaaaaaaabbaaaaaabbbaaaaaaaaaabaabbbbbbbbbbbcbbbbbbb
(PID.TID 0000.0001) //     12 .....................................++++....++++++zzzyyyyxwwwxxxxxyyz++++++++++++++++++++++++++..+zzzyyxxxxwwvvvvvvuuutttuvuuutttuuuuuuuuttsttssssqmfeedddcccccccddccccccdddddddddddddddedddeeeeeeeddeeeeeeedeeeeeeeeefgfffffffeeeeddddddedddddddddccddddddcccccccccccccccccccccccccccbbcbbbbbbbcbbbbbbbbbaaaaaaaaaaaaaaaa---aa-------------------a------------aaaaa-aaaaaaaabbbaaaaabbbaaaaaaaaabbaaaaabbbbbbbbbbbbbbbbb
(PID.TID 0000.0001) //     11 ......................................+++.....+++++zzzyyyyxxxwxxxxxyyz++++++++++++++++++++++++++...++zzyyyyxxwwvvvvvuuuttttvuuuttttuuuutttttsssrssrngeeeddccccccccddccccccdddddddddedddddedddeeeeeeedeeeeeeeeeeeeeeeeeffgfffffffeeeddddddeedddddddddccddddddcccccccccccccccccccccccccbbbbcbbbbbbbcbbbbbbbbaaaaaaaaaaaaaaaaaa--aa----------------------------aaa---aa--aaaaaaaaabbaaaaaabbbaaaaaaaabbabaaabbbbbbbbbbbbbccbb
(PID.TID 0000.0001) //     10 ......................................+++.....+++++zzzyyyyxwwwwxxxxxyzz+++++++++++++++++++++++++....+++zzyyyyxwwwvvvvuutsssvvuutssstttttsrssssrrssqifeeedccccccdddddcccddddddddddddeeddddddddeeeeeeeeeeeeeeeeeeeeeeeeeffgfffffffeeeeddddeeeeddddddddccddddddcccccccccccccccccccccccccbbbbbbbbbbbbbbbbbbbbbaaaaaaaaaaaaaaaaaaaaaaa-------a------------------a------aa--aaaaaaaaabbaaaaaabbaaaaaaaaabaabaabbbbbbbbbbbbbbcbbb
(PID.TID 0000.0001) //      9 .......................................++......++++zzzyyyyxxwwwxxxxxyzz++++++++++++++++++++++++++.....+++zzzyyyxwwwvvvuusrrvvvuusrrrsssrqqrrrrsssrjffeddccccccddddddccdddddddddddddeeeeddddddeeeeeeeeeeeeeeeeeeeeeeeeefgggffffffeeeeeeeeeeeedddddddddcdddddddccccccccccbcccccccccccccbbbbbbbbbbbbbbbbbbbbaaaaaaaaaaaaaaaaaaaaaaa----------------------aaaa-------aa-aaaaaabaaaaababaaaaabbaaaaaaaaaaabbbbbbbbbbbbbbbbbcbbb
(PID.TID 0000.0001) //      8 .......................................++......++++zzzyyyyxxwwwxxxxxyzz+++++++++++++++++++++++++........+++zzzzyyxxwvvvutsrwvvvutsrrrrrrqrrqpqrqpnigfeddccccdddddddddddddddddddddddeeeeddeeeeeeeeeddeeeeeeeeeeeeeeeeeefgggffffeeeeeeeeeeeeedddddddddccddddddccccccccccbbcccccccccccccbbbbbbbbbbbbbbbbbbbaaaaaaaaaaaaaaaaaaaaaaaaa-------a-------aaaaaa-a---------a--aaaaaabaaabbbabaaabbbbaaaaaaaaaaabbbbbbbbbbbbbbbbbbbbb
(PID.TID 0000.0001) //      7 .......................................++......++++zzzyyyyxxwwwxxxxxyzz+++++++++++++++++++++++++..........++++zzzyyxwvvuuttxwvvuuttssrrssssqponoprhgfeddcccddddddddddddddddddddddddeeeeeeeeeeeeeeeddeeeeeeeeeeeeeeeeeffgggffffffeeeeeeeeeeeedddddddddcdddddddcccccccccbbcccccccccccccbbbbbbbbbbbbbbbbbbbaaaaaaaaaaaaaaaaaaaaaaaaaa--aaaaaa--aaaaa---------------aa---aaaaabbaabbbabbaabbbaaaaaaaaaaaaabbbbbbbbbbbbbbbbbbbb
(PID.TID 0000.0001) //      6 ........................................+.......+++zzzyyyyxxwwwxxxxxyzz++++++++++++++++++++++++...............+++zzyxxwvtuuyxxwvtuuuutstuttrpmjjkkgfedccccddedddddddedddddddddddddddeeeeeeeeeeeeeedddeeeeeeffeeeeeefffffffffffffeeeeeeeeeeeedddddddddcdddddddccccccccbbccccccccccccccbbbbbbbbbbbbbbbbbbbbaaaaaaaaaaaaaaaaaaaaaaaaaaa----aaaa---------a----------a-a--aaaaabaaaaaaabaaaaaaaaaaaaaaaaaaabbbbbbbbbbbccbbbaaab
(PID.TID 0000.0001) //      5 ........................................+.......+++zzzyyyxxxwwwxxxxxxyzzz+++++++++++++++++++++...................++zzyxwuuvzzyxwuuvuuttuuvvurojhgfeddcccccdddddddddddddddddddddddddddeeeeeeeeeeeeeeeeeeeeefffeeeeefffffffffffffffeeeeeeeeeeeddddddddccddddddcccccccccbbcccbbbbccccbbbbbbbbbbbbbbbbbbbbbbbbbaaaaaaaaaaaaaaaaaaaaaaaaa----aaaa------------aa------a-a-aaaaabaaaaaaabaaaaaaaaaaa-aaabaaaabbbbbbbbbbbcbbbaaaab
(PID.TID 0000.0001) //      4 ........................................+.......+++zzzyyyxxxwwwxxxxxxyzzzz++++++++++++++++++........................+zyxwvv.+zyxwvvuuuuuvvvutsonlhgeccccccdddddddddddddddddddddddddddeeeeeeeeeeeeeeeeeeeeefffeeeeeffffffffffffffffeeeeeeeeeddddddddddcdddddddccccccccbccccbbbbbcccbbbbbbbbbbbbbbbbbbbbbbbbaaaaaaaaaaaaaaaaaaaaa--aaa-----aaa-------------aa----a---aaaaaaaaaaaaaaaaaaaaaaaaaaaaabbaaaabbbbaabbbbbbbbbaaaaa
(PID.TID 0000.0001) //      3 ........................................+.......+++zzzyyyxxxwwwxxxxxxyyzzz+++++++++++++++++..........................+zyxwu..+zyxwuuuuuuvvvvuusstpnhddccccddddddddddddddddddddddeedddeeeeeeeeeeeeeeeeeeedefffeeedeffffefffffffffffeeeeeeeeeddddddddddcdddddddcccccccccccccbbbbbbccbbbbbbbbbbbbbbbbbbbbbbbbaaaaaaaaaaaaaaaaaaaa---aa------aa---------------aa-------aaaaaaaaaaaaaaaaaaaaaaaaaaaaabbaaaabbbbaaabbbbbbbaaaaaa
(PID.TID 0000.0001) //      2 ........................................+.......+++zzzyyyxxxxwwxxxxxxyyzzz++++++++++++++++............................+zyxw...+zyxwvvvvvvvvvuuttttrkeddccddddddddddddddddddddeeeeeddeeeeeeeeeeeeeeeeeeeeeeeffeeeeeeffeffffffffffffeeeeeeeeeddddddddddcdddddddccccccccccccbbbbcbbbbcbbbbbbbbbbbbbbbbbbbbbaaaaaaaaaaaaaaaa----a----a-------a-----------------a------aaaaaaaaaaaaaaaaaaaaaaaaaaaaabbaaaaabbbbbbbbbbbbbaaaaaaa
(PID.TID 0000.0001) //      1 ..........................................................................................................................................................................................................................................................................................................................................................................................................................
(PID.TID 0000.0001) //      0 ..........................................................................................................................................................................................................................................................................................................................................................................................................................
(PID.TID 0000.0001) //     -1 .................................................................................................................................................................................................................................................................................................................................................+++++++zzzzzzzzzzzzzzzzzzzzzzzzzzzzzzzzzzzz++zzz+zzzzzzzzzzzzzzzzzzzzzzzz
(PID.TID 0000.0001) //     -2 ................................................................................................................................................................................................................................................................................................................................................+++++++zzzzzzzzzzzzzzzzzzzzzzzzzzzzzzzzzzzzzzz+++zzzzzzzzzzzzzzzzzzzzzzzzz
(PID.TID 0000.0001) //     -3 ................................................................................................................................................................................................................................................................................................................................................+++++++zzzzzzzzzzzzzzzzzzzzzzzzzzzzzzzzzzzzzzz+++zzzzzzzzzzzzzzzzzzzzzzzzz
(PID.TID 0000.0001) // =======================================================
(PID.TID 0000.0001) // END OF FIELD                                          =
(PID.TID 0000.0001) // =======================================================
(PID.TID 0000.0001) 
(PID.TID 0000.0001) // =======================================================
(PID.TID 0000.0001) // Field Model Ro_surf (ini_masks_etc)
(PID.TID 0000.0001) // CMIN =          1.000000000000000E+32
(PID.TID 0000.0001) // CMAX =         -1.000000000000000E+32
(PID.TID 0000.0001) // CINT =          0.000000000000000E+00
(PID.TID 0000.0001) // SYMBOLS (CMIN->CMAX): -abcdefghijklmnopqrstuvwxyz+
(PID.TID 0000.0001) //                  0.0: .
(PID.TID 0000.0001) // RANGE I (Lo:Hi:Step):(    -3:   334:     1)
(PID.TID 0000.0001) // RANGE J (Lo:Hi:Step):(    32:    -3:    -1)
(PID.TID 0000.0001) // RANGE K (Lo:Hi:Step):(   1:   1:   1)
(PID.TID 0000.0001) // =======================================================
(PID.TID 0000.0001) // =======================================================
(PID.TID 0000.0001) // END OF FIELD                                          =
(PID.TID 0000.0001) // =======================================================
(PID.TID 0000.0001) 
(PID.TID 0000.0001) // =======================================================
(PID.TID 0000.0001) // Field hFacC at iteration          0
(PID.TID 0000.0001) // CMIN =          1.000000000000000E+00
(PID.TID 0000.0001) // CMAX =          1.000000000000000E+00
(PID.TID 0000.0001) // CINT =          0.000000000000000E+00
(PID.TID 0000.0001) // SYMBOLS (CMIN->CMAX): -abcdefghijklmnopqrstuvwxyz+
(PID.TID 0000.0001) //                  0.0: .
(PID.TID 0000.0001) // RANGE I (Lo:Hi:Step):(    -3:   334:     1)
(PID.TID 0000.0001) // RANGE J (Lo:Hi:Step):(    32:    -3:    -1)
(PID.TID 0000.0001) // RANGE K (Lo:Hi:Step):(   1:   1:   1)
(PID.TID 0000.0001) // =======================================================
(PID.TID 0000.0001) // =======================================================
(PID.TID 0000.0001) // END OF FIELD                                          =
(PID.TID 0000.0001) // =======================================================
(PID.TID 0000.0001) 
(PID.TID 0000.0001) // =======================================================
(PID.TID 0000.0001) // Field hFacW at iteration          0
(PID.TID 0000.0001) // CMIN =          1.000000000000000E+00
(PID.TID 0000.0001) // CMAX =          1.000000000000000E+00
(PID.TID 0000.0001) // CINT =          0.000000000000000E+00
(PID.TID 0000.0001) // SYMBOLS (CMIN->CMAX): -abcdefghijklmnopqrstuvwxyz+
(PID.TID 0000.0001) //                  0.0: .
(PID.TID 0000.0001) // RANGE I (Lo:Hi:Step):(    -3:   334:     1)
(PID.TID 0000.0001) // RANGE J (Lo:Hi:Step):(    32:    -3:    -1)
(PID.TID 0000.0001) // RANGE K (Lo:Hi:Step):(   1:   1:   1)
(PID.TID 0000.0001) // =======================================================
(PID.TID 0000.0001) // =======================================================
(PID.TID 0000.0001) // END OF FIELD                                          =
(PID.TID 0000.0001) // =======================================================
(PID.TID 0000.0001) 
(PID.TID 0000.0001) // =======================================================
(PID.TID 0000.0001) // Field hFacS at iteration          0
(PID.TID 0000.0001) // CMIN =          1.000000000000000E+00
(PID.TID 0000.0001) // CMAX =          1.000000000000000E+00
(PID.TID 0000.0001) // CINT =          0.000000000000000E+00
(PID.TID 0000.0001) // SYMBOLS (CMIN->CMAX): -abcdefghijklmnopqrstuvwxyz+
(PID.TID 0000.0001) //                  0.0: .
(PID.TID 0000.0001) // RANGE I (Lo:Hi:Step):(    -3:   334:     1)
(PID.TID 0000.0001) // RANGE J (Lo:Hi:Step):(    32:    -3:    -1)
(PID.TID 0000.0001) // RANGE K (Lo:Hi:Step):(   1:   1:   1)
(PID.TID 0000.0001) // =======================================================
(PID.TID 0000.0001) // =======================================================
(PID.TID 0000.0001) // END OF FIELD                                          =
(PID.TID 0000.0001) // =======================================================
(PID.TID 0000.0001) 
(PID.TID 0000.0001) 
(PID.TID 0000.0001) // =======================================================
(PID.TID 0000.0001) // Calendar configuration >>> START <<<
(PID.TID 0000.0001) // =======================================================
(PID.TID 0000.0001) 
(PID.TID 0000.0001) modelstart = /* Start time of the model integration [s] */
(PID.TID 0000.0001)                 0.000000000000000E+00
(PID.TID 0000.0001)     ;
(PID.TID 0000.0001) modelend  = /* End time of the model integration [s] */
(PID.TID 0000.0001)                 3.600000000000000E+03
(PID.TID 0000.0001)     ;
(PID.TID 0000.0001) modelStep = /* Time interval for a model forward step [s] */
(PID.TID 0000.0001)                 2.400000000000000E+02
(PID.TID 0000.0001)     ;
(PID.TID 0000.0001) usingGregorianCalendar= /* Calendar Type: Gregorian Calendar */
(PID.TID 0000.0001)                   T
(PID.TID 0000.0001)     ;
(PID.TID 0000.0001) usingJulianCalendar = /* Calendar Type: Julian Calendar */
(PID.TID 0000.0001)                   F
(PID.TID 0000.0001)     ;
(PID.TID 0000.0001) usingNoLeapYearCal  = /* Calendar Type: without Leap Year */
(PID.TID 0000.0001)                   F
(PID.TID 0000.0001)     ;
(PID.TID 0000.0001) usingModelCalendar  = /* Calendar Type: Model Calendar */
(PID.TID 0000.0001)                   F
(PID.TID 0000.0001)     ;
(PID.TID 0000.0001) modelStartDate YYYYMMDD = /* Model start date YYYY-MM-DD */
(PID.TID 0000.0001)                20080101
(PID.TID 0000.0001)     ;
(PID.TID 0000.0001)   modelStartDate HHMMSS = /* Model start date HH-MM-SS  */
(PID.TID 0000.0001)                       0
(PID.TID 0000.0001)     ;
(PID.TID 0000.0001) modelEndDate   YYYYMMDD = /* Model end date YYYY-MM-DD */
(PID.TID 0000.0001)                20080101
(PID.TID 0000.0001)     ;
(PID.TID 0000.0001)   modelEndDate   HHMMSS = /* Model end date HH-MM-SS  */
(PID.TID 0000.0001)                   10000
(PID.TID 0000.0001)     ;
(PID.TID 0000.0001) intyears = /* Number of calendar years affected by the integration */
(PID.TID 0000.0001)                       1
(PID.TID 0000.0001)     ;
(PID.TID 0000.0001) intmonths= /* Number of calendar months affected by the integration */
(PID.TID 0000.0001)                       1
(PID.TID 0000.0001)     ;
(PID.TID 0000.0001) intdays = /* Number of calendar days affected by the integration */
(PID.TID 0000.0001)                       1
(PID.TID 0000.0001)     ;
(PID.TID 0000.0001) modelIter0 = /* Base timestep number  */
(PID.TID 0000.0001)                       0
(PID.TID 0000.0001)     ;
(PID.TID 0000.0001) modelIterEnd = /* Final timestep number  */
(PID.TID 0000.0001)                      15
(PID.TID 0000.0001)     ;
(PID.TID 0000.0001) modelIntSteps= /* Number of model timesteps  */
(PID.TID 0000.0001)                      15
(PID.TID 0000.0001)     ;
(PID.TID 0000.0001) 
(PID.TID 0000.0001) // =======================================================
(PID.TID 0000.0001) // Calendar configuration  >>> END <<<
(PID.TID 0000.0001) // =======================================================
(PID.TID 0000.0001) 
(PID.TID 0000.0001) GAD_INIT_FIXED: GAD_OlMinSize=  4  0  1
(PID.TID 0000.0001) 
(PID.TID 0000.0001) // ===================================
(PID.TID 0000.0001) // GAD parameters :
(PID.TID 0000.0001) // ===================================
(PID.TID 0000.0001) tempAdvScheme =   /* Temp. Horiz.Advection scheme selector */
(PID.TID 0000.0001)                       7
(PID.TID 0000.0001)     ;
(PID.TID 0000.0001) tempVertAdvScheme =   /* Temp. Vert. Advection scheme selector */
(PID.TID 0000.0001)                       7
(PID.TID 0000.0001)     ;
(PID.TID 0000.0001) tempMultiDimAdvec =   /* use Muti-Dim Advec method for Temp */
(PID.TID 0000.0001)                   T
(PID.TID 0000.0001)     ;
(PID.TID 0000.0001) tempSOM_Advection = /* use 2nd Order Moment Advection for Temp */
(PID.TID 0000.0001)                   F
(PID.TID 0000.0001)     ;
(PID.TID 0000.0001) AdamsBashforthGt = /* apply Adams-Bashforth extrapolation on Gt */
(PID.TID 0000.0001)                   F
(PID.TID 0000.0001)     ;
(PID.TID 0000.0001) AdamsBashforth_T = /* apply Adams-Bashforth extrapolation on Temp */
(PID.TID 0000.0001)                   F
(PID.TID 0000.0001)     ;
(PID.TID 0000.0001) saltAdvScheme =   /* Salt. Horiz.advection scheme selector */
(PID.TID 0000.0001)                       7
(PID.TID 0000.0001)     ;
(PID.TID 0000.0001) saltVertAdvScheme =   /* Salt. Vert. Advection scheme selector */
(PID.TID 0000.0001)                       7
(PID.TID 0000.0001)     ;
(PID.TID 0000.0001) saltMultiDimAdvec =   /* use Muti-Dim Advec method for Salt */
(PID.TID 0000.0001)                   T
(PID.TID 0000.0001)     ;
(PID.TID 0000.0001) saltSOM_Advection = /* use 2nd Order Moment Advection for Salt */
(PID.TID 0000.0001)                   F
(PID.TID 0000.0001)     ;
(PID.TID 0000.0001) AdamsBashforthGs = /* apply Adams-Bashforth extrapolation on Gs */
(PID.TID 0000.0001)                   F
(PID.TID 0000.0001)     ;
(PID.TID 0000.0001) AdamsBashforth_S = /* apply Adams-Bashforth extrapolation on Salt */
(PID.TID 0000.0001)                   F
(PID.TID 0000.0001)     ;
(PID.TID 0000.0001) // ===================================
(PID.TID 0000.0001) OBCS_INIT_FIXED: Setting OB indices in Overlap
(PID.TID 0000.0001)  Sets OBS(i,bi,bj=   37,  1,  1)=    2
(PID.TID 0000.0001)  Sets OBS(i,bi,bj=   34,  2,  1)=    2
(PID.TID 0000.0001)  Sets OBS(i,bi,bj=   35,  2,  1)=    2
(PID.TID 0000.0001)  Sets OBS(i,bi,bj=   36,  2,  1)=    2
(PID.TID 0000.0001)  Sets OBS(i,bi,bj=   37,  2,  1)=    2
(PID.TID 0000.0001)  Sets OBS(i,bi,bj=   -3,  3,  1)=    2
(PID.TID 0000.0001)  Sets OBS(i,bi,bj=   -2,  3,  1)=    2
(PID.TID 0000.0001)  Sets OBS(i,bi,bj=   -1,  3,  1)=    2
(PID.TID 0000.0001)  Sets OBS(i,bi,bj=    0,  3,  1)=    2
(PID.TID 0000.0001)  Sets OBS(i,bi,bj=   34,  3,  1)=    2
(PID.TID 0000.0001)  Sets OBS(i,bi,bj=   35,  3,  1)=    2
(PID.TID 0000.0001)  Sets OBS(i,bi,bj=   36,  3,  1)=    2
(PID.TID 0000.0001)  Sets OBS(i,bi,bj=   37,  3,  1)=    2
(PID.TID 0000.0001)  Sets OBS(i,bi,bj=    0,  4,  1)=    2
(PID.TID 0000.0001)  Sets OBS(i,bi,bj=   34,  4,  1)=    2
(PID.TID 0000.0001)  Sets OBS(i,bi,bj=   35,  4,  1)=    2
(PID.TID 0000.0001)  Sets OBS(i,bi,bj=   36,  4,  1)=    2
(PID.TID 0000.0001)  Sets OBS(i,bi,bj=   37,  4,  1)=    2
(PID.TID 0000.0001)  Sets OBS(i,bi,bj=   -3,  5,  1)=    2
(PID.TID 0000.0001)  Sets OBS(i,bi,bj=   -2,  5,  1)=    2
(PID.TID 0000.0001)  Sets OBS(i,bi,bj=   -1,  5,  1)=    2
(PID.TID 0000.0001)  Sets OBS(i,bi,bj=    0,  5,  1)=    2
(PID.TID 0000.0001)  Sets OBS(i,bi,bj=   34,  5,  1)=    2
(PID.TID 0000.0001)  Sets OBS(i,bi,bj=   35,  5,  1)=    2
(PID.TID 0000.0001)  Sets OBS(i,bi,bj=   36,  5,  1)=    2
(PID.TID 0000.0001)  Sets OBS(i,bi,bj=   37,  5,  1)=    2
(PID.TID 0000.0001)  Sets OBS(i,bi,bj=   -3,  6,  1)=    2
(PID.TID 0000.0001)  Sets OBS(i,bi,bj=   -2,  6,  1)=    2
(PID.TID 0000.0001)  Sets OBS(i,bi,bj=   -1,  6,  1)=    2
(PID.TID 0000.0001)  Sets OBS(i,bi,bj=    0,  6,  1)=    2
(PID.TID 0000.0001)  Sets OBS(i,bi,bj=   34,  6,  1)=    2
(PID.TID 0000.0001)  Sets OBS(i,bi,bj=   35,  6,  1)=    2
(PID.TID 0000.0001)  Sets OBS(i,bi,bj=   36,  6,  1)=    2
(PID.TID 0000.0001)  Sets OBS(i,bi,bj=   37,  6,  1)=    2
(PID.TID 0000.0001)  Sets OBS(i,bi,bj=   -3,  7,  1)=    2
(PID.TID 0000.0001)  Sets OBS(i,bi,bj=   -2,  7,  1)=    2
(PID.TID 0000.0001)  Sets OBS(i,bi,bj=   -1,  7,  1)=    2
(PID.TID 0000.0001)  Sets OBS(i,bi,bj=    0,  7,  1)=    2
(PID.TID 0000.0001)  Sets OBS(i,bi,bj=   34,  7,  1)=    2
(PID.TID 0000.0001)  Sets OBS(i,bi,bj=   35,  7,  1)=    2
(PID.TID 0000.0001)  Sets OBS(i,bi,bj=   36,  7,  1)=    2
(PID.TID 0000.0001)  Sets OBS(i,bi,bj=   37,  7,  1)=    2
(PID.TID 0000.0001)  Sets OBS(i,bi,bj=   -3,  8,  1)=    2
(PID.TID 0000.0001)  Sets OBS(i,bi,bj=   -2,  8,  1)=    2
(PID.TID 0000.0001)  Sets OBS(i,bi,bj=   -1,  8,  1)=    2
(PID.TID 0000.0001)  Sets OBS(i,bi,bj=    0,  8,  1)=    2
(PID.TID 0000.0001)  Sets OBS(i,bi,bj=   34,  8,  1)=    2
(PID.TID 0000.0001)  Sets OBS(i,bi,bj=   35,  8,  1)=    2
(PID.TID 0000.0001)  Sets OBS(i,bi,bj=   36,  8,  1)=    2
(PID.TID 0000.0001)  Sets OBS(i,bi,bj=   37,  8,  1)=    2
(PID.TID 0000.0001)  Sets OBS(i,bi,bj=   -3,  9,  1)=    2
(PID.TID 0000.0001)  Sets OBS(i,bi,bj=   -2,  9,  1)=    2
(PID.TID 0000.0001)  Sets OBS(i,bi,bj=   -1,  9,  1)=    2
(PID.TID 0000.0001)  Sets OBS(i,bi,bj=    0,  9,  1)=    2
(PID.TID 0000.0001)  Sets OBS(i,bi,bj=   34,  9,  1)=    2
(PID.TID 0000.0001)  Sets OBS(i,bi,bj=   35,  9,  1)=    2
(PID.TID 0000.0001)  Sets OBS(i,bi,bj=   36,  9,  1)=    2
(PID.TID 0000.0001)  Sets OBS(i,bi,bj=   37,  9,  1)=    2
(PID.TID 0000.0001)  Sets OBS(i,bi,bj=   -3, 10,  1)=    2
(PID.TID 0000.0001)  Sets OBS(i,bi,bj=   -2, 10,  1)=    2
(PID.TID 0000.0001)  Sets OBS(i,bi,bj=   -1, 10,  1)=    2
(PID.TID 0000.0001)  Sets OBS(i,bi,bj=    0, 10,  1)=    2
(PID.TID 0000.0001)  Sets OBS(i,bi,bj=   34, 10,  1)=    2
(PID.TID 0000.0001)  Sets OBS(i,bi,bj=   35, 10,  1)=    2
(PID.TID 0000.0001)  Sets OBS(i,bi,bj=   36, 10,  1)=    2
(PID.TID 0000.0001)  Sets OBS(i,bi,bj=   37, 10,  1)=    2
(PID.TID 0000.0001) OBCS_INIT_FIXED: Setting OB indices in Overlap <= done
(PID.TID 0000.0001) 
(PID.TID 0000.0001) // =======================================================
(PID.TID 0000.0001) // External forcing (EXF) configuration >>> START <<<
(PID.TID 0000.0001) // =======================================================
(PID.TID 0000.0001) 
(PID.TID 0000.0001)  EXF general parameters:
(PID.TID 0000.0001) 
(PID.TID 0000.0001) exf_iprec = /* exf file precision */
(PID.TID 0000.0001)                      32
(PID.TID 0000.0001)     ;
(PID.TID 0000.0001) useExfYearlyFields = /* add extension _YEAR to input file names */
(PID.TID 0000.0001)                   T
(PID.TID 0000.0001)     ;
(PID.TID 0000.0001) twoDigitYear = /* use 2-digit year extension */
(PID.TID 0000.0001)                   F
(PID.TID 0000.0001)     ;
(PID.TID 0000.0001) useExfCheckRange = /* check for fields range */
(PID.TID 0000.0001)                   F
(PID.TID 0000.0001)     ;
(PID.TID 0000.0001) exf_output_interp = /* output directly interpolation result */
(PID.TID 0000.0001)                   F
(PID.TID 0000.0001)     ;
(PID.TID 0000.0001) exf_debugLev = /* select EXF-debug printing level */
(PID.TID 0000.0001)                       2
(PID.TID 0000.0001)     ;
(PID.TID 0000.0001) exf_monFreq  = /* EXF monitor frequency [ s ] */
(PID.TID 0000.0001)                 2.400000000000000E+02
(PID.TID 0000.0001)     ;
(PID.TID 0000.0001) repeatPeriod = /* period for cycling forcing dataset [ s ] */
(PID.TID 0000.0001)                 0.000000000000000E+00
(PID.TID 0000.0001)     ;
(PID.TID 0000.0001) climTempFreeze= /* Minimum climatological temperature [deg.C] */
(PID.TID 0000.0001)                -1.900000000000000E+00
(PID.TID 0000.0001)     ;
(PID.TID 0000.0001) windStressMax = /* Maximum absolute windstress [ Pa ] */
(PID.TID 0000.0001)                 2.000000000000000E+00
(PID.TID 0000.0001)     ;
(PID.TID 0000.0001) stressIsOnCgrid = /* set u,v_stress on Arakawa C-grid */
(PID.TID 0000.0001)                   F
(PID.TID 0000.0001)     ;
(PID.TID 0000.0001) rotateStressOnAgrid = /* rotate u,v_stress on Arakawa A-grid */
(PID.TID 0000.0001)                   F
(PID.TID 0000.0001)     ;
(PID.TID 0000.0001) cen2kel = /* conversion of deg. Centigrade to Kelvin [K] */
(PID.TID 0000.0001)                 2.731500000000000E+02
(PID.TID 0000.0001)     ;
(PID.TID 0000.0001) gravity_mks= /* gravitational acceleration [m/s^2] */
(PID.TID 0000.0001)                 9.810000000000000E+00
(PID.TID 0000.0001)     ;
(PID.TID 0000.0001) atmrho =  /* mean atmospheric density [kg/m^3] */
(PID.TID 0000.0001)                 1.200000000000000E+00
(PID.TID 0000.0001)     ;
(PID.TID 0000.0001) atmcp =  /* mean atmospheric specific heat [J/kg/K] */
(PID.TID 0000.0001)                 1.005000000000000E+03
(PID.TID 0000.0001)     ;
(PID.TID 0000.0001) flamb =  /* latent heat of evaporation [J/kg] */
(PID.TID 0000.0001)                 2.500000000000000E+06
(PID.TID 0000.0001)     ;
(PID.TID 0000.0001) flami =  /* latent heat of pure-ice melting [J/kg] */
(PID.TID 0000.0001)                 3.340000000000000E+05
(PID.TID 0000.0001)     ;
(PID.TID 0000.0001) cvapor_fac = /* const. for Saturation calculation [?] */
(PID.TID 0000.0001)                 6.403800000000000E+05
(PID.TID 0000.0001)     ;
(PID.TID 0000.0001) cvapor_exp = /* const. for Saturation calculation [?] */
(PID.TID 0000.0001)                 5.107400000000000E+03
(PID.TID 0000.0001)     ;
(PID.TID 0000.0001) cvapor_fac_ice= /* const. for Saturation calculation [?] */
(PID.TID 0000.0001)                 1.163780000000000E+07
(PID.TID 0000.0001)     ;
(PID.TID 0000.0001) cvapor_exp_ice= /* const. for Saturation calculation [?] */
(PID.TID 0000.0001)                 5.897800000000000E+03
(PID.TID 0000.0001)     ;
(PID.TID 0000.0001) humid_fac = /* humidity coef. in virtual temp. [(kg/kg)^-1] */
(PID.TID 0000.0001)                 6.060000000000000E-01
(PID.TID 0000.0001)     ;
(PID.TID 0000.0001) gamma_blk = /* adiabatic lapse rate [?] */
(PID.TID 0000.0001)                 1.000000000000000E-02
(PID.TID 0000.0001)     ;
(PID.TID 0000.0001) saltsat = /* reduction of Qsat over salty water [-] */
(PID.TID 0000.0001)                 9.800000000000000E-01
(PID.TID 0000.0001)     ;
(PID.TID 0000.0001) noNegativeEvap = /* prevent negative Evaporation */
(PID.TID 0000.0001)                   F
(PID.TID 0000.0001)     ;
(PID.TID 0000.0001) sstExtrapol = /* extrapolation coeff from lev. 1 & 2 to surf [-] */
(PID.TID 0000.0001)                 0.000000000000000E+00
(PID.TID 0000.0001)     ;
(PID.TID 0000.0001) cDrag_1 = /* coef used in drag calculation [?] */
(PID.TID 0000.0001)                 2.700000000000000E-03
(PID.TID 0000.0001)     ;
(PID.TID 0000.0001) cDrag_2 = /* coef used in drag calculation [?] */
(PID.TID 0000.0001)                 1.420000000000000E-04
(PID.TID 0000.0001)     ;
(PID.TID 0000.0001) cDrag_3 = /* coef used in drag calculation [?] */
(PID.TID 0000.0001)                 7.640000000000000E-05
(PID.TID 0000.0001)     ;
(PID.TID 0000.0001) cStanton_1 = /* coef used in Stanton number calculation [?] */
(PID.TID 0000.0001)                 3.270000000000000E-02
(PID.TID 0000.0001)     ;
(PID.TID 0000.0001) cStanton_2 = /* coef used in Stanton number calculation [?] */
(PID.TID 0000.0001)                 1.800000000000000E-02
(PID.TID 0000.0001)     ;
(PID.TID 0000.0001) cDalton = /* coef used in Dalton number calculation [?] */
(PID.TID 0000.0001)                 3.460000000000000E-02
(PID.TID 0000.0001)     ;
(PID.TID 0000.0001) exf_scal_BulkCdn= /* Drag coefficient scaling factor [-] */
(PID.TID 0000.0001)                 1.000000000000000E+00
(PID.TID 0000.0001)     ;
(PID.TID 0000.0001) zolmin = /* minimum stability parameter [?] */
(PID.TID 0000.0001)                -1.000000000000000E+02
(PID.TID 0000.0001)     ;
(PID.TID 0000.0001) psim_fac = /* coef used in turbulent fluxes calculation [-] */
(PID.TID 0000.0001)                 5.000000000000000E+00
(PID.TID 0000.0001)     ;
(PID.TID 0000.0001) zref =  /* reference height [ m ] */
(PID.TID 0000.0001)                 1.000000000000000E+01
(PID.TID 0000.0001)     ;
(PID.TID 0000.0001) hu =  /* height of mean wind [ m ] */
(PID.TID 0000.0001)                 1.000000000000000E+01
(PID.TID 0000.0001)     ;
(PID.TID 0000.0001) ht =  /* height of mean temperature [ m ] */
(PID.TID 0000.0001)                 2.000000000000000E+00
(PID.TID 0000.0001)     ;
(PID.TID 0000.0001) hq =  /* height of mean spec.humidity [ m ] */
(PID.TID 0000.0001)                 2.000000000000000E+00
(PID.TID 0000.0001)     ;
(PID.TID 0000.0001) uMin = /* minimum wind speed [m/s] */
(PID.TID 0000.0001)                 5.000000000000000E-01
(PID.TID 0000.0001)     ;
(PID.TID 0000.0001) useStabilityFct_overIce= /* transfert Coeffs over sea-ice depend on stability */
(PID.TID 0000.0001)                   F
(PID.TID 0000.0001)     ;
(PID.TID 0000.0001) exf_iceCd = /* drag coefficient over sea-ice (fixed) [-] */
(PID.TID 0000.0001)                 1.630000000000000E-03
(PID.TID 0000.0001)     ;
(PID.TID 0000.0001) exf_iceCe = /* transfert coeff. over sea-ice, for Evap (fixed) [-] */
(PID.TID 0000.0001)                 1.630000000000000E-03
(PID.TID 0000.0001)     ;
(PID.TID 0000.0001) exf_iceCh = /* transfert coeff. over sea-ice, Sens.Heat.(fixed)[-] */
(PID.TID 0000.0001)                 1.630000000000000E-03
(PID.TID 0000.0001)     ;
(PID.TID 0000.0001) exf_albedo =  /* Sea-water albedo [-] */
(PID.TID 0000.0001)                 1.000000000000000E-01
(PID.TID 0000.0001)     ;
(PID.TID 0000.0001) useExfZenAlbedo = /* Sea-water albedo varies with zenith angle */
(PID.TID 0000.0001)                   T
(PID.TID 0000.0001)     ;
(PID.TID 0000.0001) select_ZenAlbedo = /* Sea-water albedo computation method */
(PID.TID 0000.0001)                       1
(PID.TID 0000.0001)     ;
(PID.TID 0000.0001) useExfZenIncoming = /* compute incoming solar radiation */
(PID.TID 0000.0001)                   T
(PID.TID 0000.0001)     ;
(PID.TID 0000.0001) ocean_emissivity = /* longwave ocean-surface emissivity [-] */
(PID.TID 0000.0001)                 9.700000000000000E-01
(PID.TID 0000.0001)     ;
(PID.TID 0000.0001) ice_emissivity = /* longwave seaice emissivity [-] */
(PID.TID 0000.0001)                 9.500000000000000E-01
(PID.TID 0000.0001)     ;
(PID.TID 0000.0001) snow_emissivity = /* longwave snow  emissivity [-] */
(PID.TID 0000.0001)                 9.500000000000000E-01
(PID.TID 0000.0001)     ;
(PID.TID 0000.0001) 
(PID.TID 0000.0001)  EXF main CPP flags:
(PID.TID 0000.0001) 
(PID.TID 0000.0001) // USE_EXF_INTERPOLATION:              defined
(PID.TID 0000.0001) // ALLOW_ATM_TEMP:                     defined
(PID.TID 0000.0001) // ALLOW_ATM_WIND (useAtmWind):        defined
(PID.TID 0000.0001) // ALLOW_DOWNWARD_RADIATION:           defined
(PID.TID 0000.0001) // ALLOW_BULKFORMULAE:                 defined
(PID.TID 0000.0001) 
(PID.TID 0000.0001)    Zonal wind forcing starts at                          0.
(PID.TID 0000.0001)    Zonal wind forcing period is                       3600.
(PID.TID 0000.0001)    Zonal wind forcing repeat-cycle is                    0.
(PID.TID 0000.0001)    Zonal wind forcing is read from file:
(PID.TID 0000.0001)    >> era_forcing/ERA5_u10m <<
(PID.TID 0000.0001)    interpolate "uwind" (method= 12 ):
(PID.TID 0000.0001)    lon0=   0.00000, nlon=  1280, lon_inc= 0.2812500
(PID.TID 0000.0001)    lat0= -89.78489, nlat=   640, inc(min,max)= 0.27868 0.28103
(PID.TID 0000.0001) 
(PID.TID 0000.0001)    Meridional wind forcing starts at                     0.
(PID.TID 0000.0001)    Meridional wind forcing period is                  3600.
(PID.TID 0000.0001)    Meridional wind forcing repeat-cycle is               0.
(PID.TID 0000.0001)    Meridional wind forcing is read from file:
(PID.TID 0000.0001)    >> era_forcing/ERA5_v10m <<
(PID.TID 0000.0001)    interpolate "vwind" (method= 22 ):
(PID.TID 0000.0001)    lon0=   0.00000, nlon=  1280, lon_inc= 0.2812500
(PID.TID 0000.0001)    lat0= -89.78489, nlat=   640, inc(min,max)= 0.27868 0.28103
(PID.TID 0000.0001)     Interp. U & V comp. together: uvInterp_wind =    T
(PID.TID 0000.0001) 
(PID.TID 0000.0001)    Atmospheric temperature starts at                     0.
(PID.TID 0000.0001)    Atmospheric temperature period is                  3600.
(PID.TID 0000.0001)    Atmospheric temperature repeat-cycle is               0.
(PID.TID 0000.0001)    Atmospheric temperature is read from file:
(PID.TID 0000.0001)    >> era_forcing/ERA5_tmp2m_degC <<
(PID.TID 0000.0001)    interpolate "atemp" (method=  1 ):
(PID.TID 0000.0001)    lon0=   0.00000, nlon=  1280, lon_inc= 0.2812500
(PID.TID 0000.0001)    lat0= -89.78489, nlat=   640, inc(min,max)= 0.27868 0.28103
(PID.TID 0000.0001) 
(PID.TID 0000.0001)    Atmospheric specific humidity starts at               0.
(PID.TID 0000.0001)    Atmospheric specific humidity period is            3600.
(PID.TID 0000.0001)    Atmospheric specific humidity rep-cycle is            0.
(PID.TID 0000.0001)    Atmospheric specific humidity is read from file:
(PID.TID 0000.0001)    >> era_forcing/ERA5_spfh2m <<
(PID.TID 0000.0001)    interpolate "aqh" (method=  1 ):
(PID.TID 0000.0001)    lon0=   0.00000, nlon=  1280, lon_inc= 0.2812500
(PID.TID 0000.0001)    lat0= -89.78489, nlat=   640, inc(min,max)= 0.27868 0.28103
(PID.TID 0000.0001) 
(PID.TID 0000.0001) // ALLOW_READ_TURBFLUXES:          NOT defined
(PID.TID 0000.0001) // EXF_READ_EVAP:                  NOT defined
(PID.TID 0000.0001) 
(PID.TID 0000.0001)    Precipitation data starts at                       1800.
(PID.TID 0000.0001)    Precipitation data period is                       3600.
(PID.TID 0000.0001)    Precipitation data repeat-cycle is                    0.
(PID.TID 0000.0001)    Precipitation data is read from file:
(PID.TID 0000.0001)    >> era_forcing/ERA5_rain <<
(PID.TID 0000.0001)    interpolate "precip" (method=  1 ):
(PID.TID 0000.0001)    lon0=   0.00000, nlon=  1280, lon_inc= 0.2812500
(PID.TID 0000.0001)    lat0= -89.78489, nlat=   640, inc(min,max)= 0.27868 0.28103
(PID.TID 0000.0001) 
(PID.TID 0000.0001) // ALLOW_RUNOFF:                       defined
(PID.TID 0000.0001)    Runoff data period is                               -12.
(PID.TID 0000.0001)    Runoff data is read from file:
(PID.TID 0000.0001)    >> runoff1p2472-360x180x12.bin <<
(PID.TID 0000.0001)    interpolate "runoff" (method=  1 ):
(PID.TID 0000.0001)    lon0=   0.50000, nlon=   360, lon_inc= 1.0000000
(PID.TID 0000.0001)    lat0= -89.50000, nlat=   180, lat_inc= 1.0000000
(PID.TID 0000.0001) 
(PID.TID 0000.0001) // ALLOW_RUNOFTEMP:                NOT defined
(PID.TID 0000.0001) // ALLOW_SALTFLX:                      defined
(PID.TID 0000.0001) 
(PID.TID 0000.0001)    Downward shortwave flux starts at                  1800.
(PID.TID 0000.0001)    Downward shortwave flux period is                  3600.
(PID.TID 0000.0001)    Downward shortwave flux repeat-cycle is               0.
(PID.TID 0000.0001)    Downward shortwave flux is read from file:
(PID.TID 0000.0001)    >> era_forcing/ERA5_dsw <<
(PID.TID 0000.0001)    interpolate "swdown" (method=  1 ):
(PID.TID 0000.0001)    lon0=   0.00000, nlon=  1280, lon_inc= 0.2812500
(PID.TID 0000.0001)    lat0= -89.78489, nlat=   640, inc(min,max)= 0.27868 0.28103
(PID.TID 0000.0001) 
(PID.TID 0000.0001)    Downward longwave flux starts at                   1800.
(PID.TID 0000.0001)    Downward longwave flux period is                   3600.
(PID.TID 0000.0001)    Downward longwave flux repeat-cycle is                0.
(PID.TID 0000.0001)    Downward longwave flux is read from file:
(PID.TID 0000.0001)    >> era_forcing/ERA5_dlw <<
(PID.TID 0000.0001)    interpolate "lwdown" (method=  1 ):
(PID.TID 0000.0001)    lon0=   0.00000, nlon=  1280, lon_inc= 0.2812500
(PID.TID 0000.0001)    lat0= -89.78489, nlat=   640, inc(min,max)= 0.27868 0.28103
(PID.TID 0000.0001) 
(PID.TID 0000.0001)    Atmospheric pressure forcing starts at                0.
(PID.TID 0000.0001)    Atmospheric pressure forcing period is             3600.
(PID.TID 0000.0001)    Atmospheric pressure forcing rep-cycle is             0.
(PID.TID 0000.0001)    Atmospheric pressure forcing is read from file:
(PID.TID 0000.0001)    >> era_forcing/ERA5_pres <<
(PID.TID 0000.0001)    interpolate "apressure" (method=  1 ):
(PID.TID 0000.0001)    lon0=   0.00000, nlon=  1280, lon_inc= 0.2812500
(PID.TID 0000.0001)    lat0= -89.78489, nlat=   640, inc(min,max)= 0.27868 0.28103
(PID.TID 0000.0001) 
(PID.TID 0000.0001)    Tidal geopotential starts at                          0.
(PID.TID 0000.0001)    Tidal geopotential period is                       3600.
(PID.TID 0000.0001)    Tidal geopotential repeat-cycle is                    0.
(PID.TID 0000.0001)    Tidal geopotential is read from file:
(PID.TID 0000.0001)    >> tide_IAU_EARTH <<
(PID.TID 0000.0001)    interpolate "tidePot" (method=  1 ):
(PID.TID 0000.0001)    lon0=   0.00000, nlon=   360, lon_inc= 1.0000000
(PID.TID 0000.0001)    lat0= -90.00000, nlat=   181, lat_inc= 1.0000000
(PID.TID 0000.0001) 
(PID.TID 0000.0001) // =======================================================
(PID.TID 0000.0001) // External forcing (EXF) climatology configuration :
(PID.TID 0000.0001) // =======================================================
(PID.TID 0000.0001) 
(PID.TID 0000.0001) // ALLOW_CLIMSST_RELAXATION:       NOT defined
(PID.TID 0000.0001) 
(PID.TID 0000.0001) // ALLOW_CLIMSSS_RELAXATION:       NOT defined
(PID.TID 0000.0001) 
(PID.TID 0000.0001) // =======================================================
(PID.TID 0000.0001) // External forcing (EXF) configuration  >>> END <<<
(PID.TID 0000.0001) // =======================================================
(PID.TID 0000.0001) 
(PID.TID 0000.0001) ------------------------------------------------------------
(PID.TID 0000.0001) DIAGNOSTICS_SET_LEVELS: done
(PID.TID 0000.0001)  Total Nb of available Diagnostics: ndiagt=   213
(PID.TID 0000.0001)  write list of available Diagnostics to file: available_diagnostics.log
(PID.TID 0000.0001) SETDIAG: Allocate  1 x  1 Levels for Diagnostic #    23 ETAN
(PID.TID 0000.0001) SETDIAG: Allocate  1 x  1 Levels for Diagnostic #    80 oceTAUX
(PID.TID 0000.0001) SETDIAG: Allocate  1 x  1 Levels for Diagnostic #    81 oceTAUY
(PID.TID 0000.0001) SETDIAG: Allocate  1 x  1 Levels for Diagnostic #   185 EXFuwind
(PID.TID 0000.0001) SETDIAG: Allocate  1 x  1 Levels for Diagnostic #   186 EXFvwind
(PID.TID 0000.0001) SETDIAG: Allocate100 x  1 Levels for Diagnostic #    26 THETA
(PID.TID 0000.0001) SETDIAG: Allocate100 x  1 Levels for Diagnostic #    27 SALT
(PID.TID 0000.0001) SETDIAG: Allocate100 x  1 Levels for Diagnostic #    30 UVEL
(PID.TID 0000.0001) SETDIAG: Allocate100 x  1 Levels for Diagnostic #    31 VVEL
(PID.TID 0000.0001) SETDIAG: Allocate100 x  1 Levels for Diagnostic #    32 WVEL
(PID.TID 0000.0001) SETDIAG: Allocate100 x  1 Levels for Diagnostic #    36 UVELSQ
(PID.TID 0000.0001) SETDIAG: Allocate100 x  1 Levels for Diagnostic #    37 VVELSQ
(PID.TID 0000.0001) SETDIAG: Allocate100 x  1 Levels for Diagnostic #    52 WTHMASS
(PID.TID 0000.0001) SETDIAG: Allocate100 x  1 Levels for Diagnostic #    55 WSLTMASS
(PID.TID 0000.0001)   space allocated for all diagnostics:     905 levels
(PID.TID 0000.0001)   set mate pointer for diag #    80  oceTAUX  , Parms: UU      U1 , mate:    81
(PID.TID 0000.0001)   set mate pointer for diag #    81  oceTAUY  , Parms: VV      U1 , mate:    80
(PID.TID 0000.0001)   set mate pointer for diag #    30  UVEL     , Parms: UUR     MR , mate:    31
(PID.TID 0000.0001)   set mate pointer for diag #    31  VVEL     , Parms: VVR     MR , mate:    30
(PID.TID 0000.0001)   set mate pointer for diag #    36  UVELSQ   , Parms: UURP    MR , mate:    37
(PID.TID 0000.0001)   set mate pointer for diag #    37  VVELSQ   , Parms: VVRP    MR , mate:    36
(PID.TID 0000.0001) DIAGNOSTICS_SET_POINTERS: Set levels for Outp.Stream: diags/surface
(PID.TID 0000.0001)  Levels:       1.
(PID.TID 0000.0001) DIAGNOSTICS_SET_POINTERS: Set levels for Outp.Stream: diags/interior
(PID.TID 0000.0001)  Levels:       1.   2.   3.   4.   5.   6.   7.   8.   9.  10.  11.  12.  13.  14.  15.  16.  17.  18.  19.  20.
(PID.TID 0000.0001)  Levels:      21.  22.  23.  24.  25.  26.  27.  28.  29.  30.  31.  32.  33.  34.  35.  36.  37.  38.  39.  40.
(PID.TID 0000.0001)  Levels:      41.  42.  43.  44.  45.  46.  47.  48.  49.  50.  51.  52.  53.  54.  55.  56.  57.  58.  59.  60.
(PID.TID 0000.0001)  Levels:      61.  62.  63.  64.  65.  66.  67.  68.  69.  70.  71.  72.  73.  74.  75.  76.  77.  78.  79.  80.
(PID.TID 0000.0001)  Levels:      81.  82.  83.  84.  85.  86.  87.  88.  89.  90.  91.  92.  93.  94.  95.  96.  97.  98.  99. 100.
(PID.TID 0000.0001) DIAGNOSTICS_SET_POINTERS: done
(PID.TID 0000.0001) ------------------------------------------------------------
(PID.TID 0000.0001) DIAGSTATS_SET_REGIONS: define no region
(PID.TID 0000.0001) ------------------------------------------------------------
(PID.TID 0000.0001)   space allocated for all stats-diags:       0 levels
(PID.TID 0000.0001) DIAGSTATS_SET_POINTERS: done
(PID.TID 0000.0001) ------------------------------------------------------------
(PID.TID 0000.0001) %MON fCori_max                    =   1.0031064840358E-04
(PID.TID 0000.0001) %MON fCori_min                    =   6.5921486603128E-05
(PID.TID 0000.0001) %MON fCori_mean                   =   8.3936872523081E-05
(PID.TID 0000.0001) %MON fCori_sd                     =   9.8545159722241E-06
(PID.TID 0000.0001) %MON fCoriG_max                   =   1.0028465045639E-04
(PID.TID 0000.0001) %MON fCoriG_min                   =   6.5882690911173E-05
(PID.TID 0000.0001) %MON fCoriG_mean                  =   8.3904363816394E-05
(PID.TID 0000.0001) %MON fCoriG_sd                    =   9.8581982025545E-06
(PID.TID 0000.0001) %MON fCoriCos_max                 =   1.3009374988389E-04
(PID.TID 0000.0001) %MON fCoriCos_min                 =   1.0586689743103E-04
(PID.TID 0000.0001) %MON fCoriCos_mean                =   1.1865496523699E-04
(PID.TID 0000.0001) %MON fCoriCos_sd                  =   6.9652943530273E-06
(PID.TID 0000.0001) INI_CG2D: CG2D normalisation factor =  1.4987118910715993E-04
(PID.TID 0000.0001) INI_CG2D: cg2dTolerance = 7.057349561527462E-12 (Area=1.1301464310E+13)
(PID.TID 0000.0001) 
(PID.TID 0000.0001) // =======================================================
(PID.TID 0000.0001) // Model configuration
(PID.TID 0000.0001) // =======================================================
(PID.TID 0000.0001) //
(PID.TID 0000.0001) // "Physical" paramters ( PARM01 in namelist )
(PID.TID 0000.0001) //
(PID.TID 0000.0001) buoyancyRelation = /* Type of relation to get Buoyancy */
(PID.TID 0000.0001)               'OCEANIC'
(PID.TID 0000.0001)     ;
(PID.TID 0000.0001) fluidIsAir   =  /* fluid major constituent is Air */
(PID.TID 0000.0001)                   F
(PID.TID 0000.0001)     ;
(PID.TID 0000.0001) fluidIsWater =  /* fluid major constituent is Water */
(PID.TID 0000.0001)                   T
(PID.TID 0000.0001)     ;
(PID.TID 0000.0001) usingPCoords =  /* use p (or p*) vertical coordinate */
(PID.TID 0000.0001)                   F
(PID.TID 0000.0001)     ;
(PID.TID 0000.0001) usingZCoords =  /* use z (or z*) vertical coordinate */
(PID.TID 0000.0001)                   T
(PID.TID 0000.0001)     ;
(PID.TID 0000.0001) tRef =   /* Reference temperature profile ( oC or K ) */
(PID.TID 0000.0001)     5 @  1.889000000000000E+01,             /* K =  1:  5 */
(PID.TID 0000.0001)                 1.887000000000000E+01,      /* K =  6 */
(PID.TID 0000.0001)                 1.885000000000000E+01,      /* K =  7 */
(PID.TID 0000.0001)                 1.882000000000000E+01,      /* K =  8 */
(PID.TID 0000.0001)                 1.880000000000000E+01,      /* K =  9 */
(PID.TID 0000.0001)                 1.873000000000000E+01,      /* K = 10 */
(PID.TID 0000.0001)                 1.863000000000000E+01,      /* K = 11 */
(PID.TID 0000.0001)                 1.849000000000000E+01,      /* K = 12 */
(PID.TID 0000.0001)                 1.828000000000000E+01,      /* K = 13 */
(PID.TID 0000.0001)                 1.808000000000000E+01,      /* K = 14 */
(PID.TID 0000.0001)                 1.786000000000000E+01,      /* K = 15 */
(PID.TID 0000.0001)                 1.763000000000000E+01,      /* K = 16 */
(PID.TID 0000.0001)                 1.740000000000000E+01,      /* K = 17 */
(PID.TID 0000.0001)                 1.718000000000000E+01,      /* K = 18 */
(PID.TID 0000.0001)                 1.695000000000000E+01,      /* K = 19 */
(PID.TID 0000.0001)                 1.673000000000000E+01,      /* K = 20 */
(PID.TID 0000.0001)                 1.652000000000000E+01,      /* K = 21 */
(PID.TID 0000.0001)                 1.631000000000000E+01,      /* K = 22 */
(PID.TID 0000.0001)                 1.610000000000000E+01,      /* K = 23 */
(PID.TID 0000.0001)                 1.589000000000000E+01,      /* K = 24 */
(PID.TID 0000.0001)                 1.569000000000000E+01,      /* K = 25 */
(PID.TID 0000.0001)                 1.549000000000000E+01,      /* K = 26 */
(PID.TID 0000.0001)                 1.528000000000000E+01,      /* K = 27 */
(PID.TID 0000.0001)                 1.508000000000000E+01,      /* K = 28 */
(PID.TID 0000.0001)                 1.488000000000000E+01,      /* K = 29 */
(PID.TID 0000.0001)                 1.467000000000000E+01,      /* K = 30 */
(PID.TID 0000.0001)                 1.447000000000000E+01,      /* K = 31 */
(PID.TID 0000.0001)                 1.425000000000000E+01,      /* K = 32 */
(PID.TID 0000.0001)                 1.403000000000000E+01,      /* K = 33 */
(PID.TID 0000.0001)                 1.380000000000000E+01,      /* K = 34 */
(PID.TID 0000.0001)                 1.355000000000000E+01,      /* K = 35 */
(PID.TID 0000.0001)                 1.329000000000000E+01,      /* K = 36 */
(PID.TID 0000.0001)                 1.301000000000000E+01,      /* K = 37 */
(PID.TID 0000.0001)                 1.273000000000000E+01,      /* K = 38 */
(PID.TID 0000.0001)                 1.242000000000000E+01,      /* K = 39 */
(PID.TID 0000.0001)                 1.211000000000000E+01,      /* K = 40 */
(PID.TID 0000.0001)                 1.178000000000000E+01,      /* K = 41 */
(PID.TID 0000.0001)                 1.143000000000000E+01,      /* K = 42 */
(PID.TID 0000.0001)                 1.107000000000000E+01,      /* K = 43 */
(PID.TID 0000.0001)                 1.070000000000000E+01,      /* K = 44 */
(PID.TID 0000.0001)                 1.031000000000000E+01,      /* K = 45 */
(PID.TID 0000.0001)                 9.930000000000000E+00,      /* K = 46 */
(PID.TID 0000.0001)                 9.529999999999999E+00,      /* K = 47 */
(PID.TID 0000.0001)                 9.109999999999999E+00,      /* K = 48 */
(PID.TID 0000.0001)                 8.710000000000001E+00,      /* K = 49 */
(PID.TID 0000.0001)                 8.289999999999999E+00,      /* K = 50 */
(PID.TID 0000.0001)                 7.890000000000000E+00,      /* K = 51 */
(PID.TID 0000.0001)                 7.510000000000000E+00,      /* K = 52 */
(PID.TID 0000.0001)                 7.130000000000000E+00,      /* K = 53 */
(PID.TID 0000.0001)                 6.780000000000000E+00,      /* K = 54 */
(PID.TID 0000.0001)                 6.440000000000000E+00,      /* K = 55 */
(PID.TID 0000.0001)                 6.110000000000000E+00,      /* K = 56 */
(PID.TID 0000.0001)                 5.810000000000000E+00,      /* K = 57 */
(PID.TID 0000.0001)                 5.510000000000000E+00,      /* K = 58 */
(PID.TID 0000.0001)                 5.230000000000000E+00,      /* K = 59 */
(PID.TID 0000.0001)                 4.970000000000000E+00,      /* K = 60 */
(PID.TID 0000.0001)                 4.730000000000000E+00,      /* K = 61 */
(PID.TID 0000.0001)                 4.510000000000000E+00,      /* K = 62 */
(PID.TID 0000.0001)                 4.300000000000000E+00,      /* K = 63 */
(PID.TID 0000.0001)                 4.110000000000000E+00,      /* K = 64 */
(PID.TID 0000.0001)                 3.940000000000000E+00,      /* K = 65 */
(PID.TID 0000.0001)                 3.780000000000000E+00,      /* K = 66 */
(PID.TID 0000.0001)                 3.630000000000000E+00,      /* K = 67 */
(PID.TID 0000.0001)                 3.500000000000000E+00,      /* K = 68 */
(PID.TID 0000.0001)                 3.380000000000000E+00,      /* K = 69 */
(PID.TID 0000.0001)                 3.250000000000000E+00,      /* K = 70 */
(PID.TID 0000.0001)                 3.140000000000000E+00,      /* K = 71 */
(PID.TID 0000.0001)                 3.040000000000000E+00,      /* K = 72 */
(PID.TID 0000.0001)                 2.940000000000000E+00,      /* K = 73 */
(PID.TID 0000.0001)                 2.830000000000000E+00,      /* K = 74 */
(PID.TID 0000.0001)                 2.740000000000000E+00,      /* K = 75 */
(PID.TID 0000.0001)                 2.640000000000000E+00,      /* K = 76 */
(PID.TID 0000.0001)                 2.540000000000000E+00,      /* K = 77 */
(PID.TID 0000.0001)                 2.450000000000000E+00,      /* K = 78 */
(PID.TID 0000.0001)                 2.360000000000000E+00,      /* K = 79 */
(PID.TID 0000.0001)                 2.270000000000000E+00,      /* K = 80 */
(PID.TID 0000.0001)                 2.190000000000000E+00,      /* K = 81 */
(PID.TID 0000.0001)                 2.100000000000000E+00,      /* K = 82 */
(PID.TID 0000.0001)                 2.030000000000000E+00,      /* K = 83 */
(PID.TID 0000.0001)                 1.950000000000000E+00,      /* K = 84 */
(PID.TID 0000.0001)                 1.860000000000000E+00,      /* K = 85 */
(PID.TID 0000.0001)                 1.780000000000000E+00,      /* K = 86 */
(PID.TID 0000.0001)                 1.700000000000000E+00,      /* K = 87 */
(PID.TID 0000.0001)                 1.630000000000000E+00,      /* K = 88 */
(PID.TID 0000.0001)                 1.550000000000000E+00,      /* K = 89 */
(PID.TID 0000.0001)                 1.480000000000000E+00,      /* K = 90 */
(PID.TID 0000.0001)                 1.410000000000000E+00,      /* K = 91 */
(PID.TID 0000.0001)                 1.340000000000000E+00,      /* K = 92 */
(PID.TID 0000.0001)                 1.270000000000000E+00,      /* K = 93 */
(PID.TID 0000.0001)                 1.200000000000000E+00,      /* K = 94 */
(PID.TID 0000.0001)                 1.130000000000000E+00,      /* K = 95 */
(PID.TID 0000.0001)                 1.060000000000000E+00,      /* K = 96 */
(PID.TID 0000.0001)                 1.000000000000000E+00,      /* K = 97 */
(PID.TID 0000.0001)                 9.600000000000000E-01,      /* K = 98 */
(PID.TID 0000.0001)                 9.300000000000000E-01,      /* K = 99 */
(PID.TID 0000.0001)                 9.100000000000000E-01       /* K =100 */
(PID.TID 0000.0001)     ;
(PID.TID 0000.0001) sRef =   /* Reference salinity profile ( psu ) */
(PID.TID 0000.0001)     6 @  3.484000000000000E+01,             /* K =  1:  6 */
(PID.TID 0000.0001)     3 @  3.485000000000000E+01,             /* K =  7:  9 */
(PID.TID 0000.0001)                 3.486000000000000E+01,      /* K = 10 */
(PID.TID 0000.0001)                 3.487000000000000E+01,      /* K = 11 */
(PID.TID 0000.0001)                 3.488000000000000E+01,      /* K = 12 */
(PID.TID 0000.0001)                 3.490000000000000E+01,      /* K = 13 */
(PID.TID 0000.0001)                 3.491000000000000E+01,      /* K = 14 */
(PID.TID 0000.0001)                 3.493000000000000E+01,      /* K = 15 */
(PID.TID 0000.0001)                 3.495000000000000E+01,      /* K = 16 */
(PID.TID 0000.0001)                 3.496000000000000E+01,      /* K = 17 */
(PID.TID 0000.0001)                 3.498000000000000E+01,      /* K = 18 */
(PID.TID 0000.0001)                 3.499000000000000E+01,      /* K = 19 */
(PID.TID 0000.0001)                 3.500000000000000E+01,      /* K = 20 */
(PID.TID 0000.0001)                 3.501000000000000E+01,      /* K = 21 */
(PID.TID 0000.0001)                 3.502000000000000E+01,      /* K = 22 */
(PID.TID 0000.0001)                 3.503000000000000E+01,      /* K = 23 */
(PID.TID 0000.0001)                 3.504000000000000E+01,      /* K = 24 */
(PID.TID 0000.0001)                 3.505000000000000E+01,      /* K = 25 */
(PID.TID 0000.0001)                 3.506000000000000E+01,      /* K = 26 */
(PID.TID 0000.0001)     7 @  3.507000000000000E+01,             /* K = 27: 33 */
(PID.TID 0000.0001)                 3.506000000000000E+01,      /* K = 34 */
(PID.TID 0000.0001)                 3.505000000000000E+01,      /* K = 35 */
(PID.TID 0000.0001)                 3.504000000000000E+01,      /* K = 36 */
(PID.TID 0000.0001)                 3.503000000000000E+01,      /* K = 37 */
(PID.TID 0000.0001)                 3.502000000000000E+01,      /* K = 38 */
(PID.TID 0000.0001)                 3.501000000000000E+01,      /* K = 39 */
(PID.TID 0000.0001)                 3.499000000000000E+01,      /* K = 40 */
(PID.TID 0000.0001)                 3.497000000000000E+01,      /* K = 41 */
(PID.TID 0000.0001)                 3.495000000000000E+01,      /* K = 42 */
(PID.TID 0000.0001)                 3.492000000000000E+01,      /* K = 43 */
(PID.TID 0000.0001)                 3.490000000000000E+01,      /* K = 44 */
(PID.TID 0000.0001)                 3.487000000000000E+01,      /* K = 45 */
(PID.TID 0000.0001)                 3.484000000000000E+01,      /* K = 46 */
(PID.TID 0000.0001)                 3.481000000000000E+01,      /* K = 47 */
(PID.TID 0000.0001)                 3.478000000000000E+01,      /* K = 48 */
(PID.TID 0000.0001)                 3.475000000000000E+01,      /* K = 49 */
(PID.TID 0000.0001)                 3.472000000000000E+01,      /* K = 50 */
(PID.TID 0000.0001)                 3.469000000000000E+01,      /* K = 51 */
(PID.TID 0000.0001)                 3.467000000000000E+01,      /* K = 52 */
(PID.TID 0000.0001)                 3.465000000000000E+01,      /* K = 53 */
(PID.TID 0000.0001)                 3.462000000000000E+01,      /* K = 54 */
(PID.TID 0000.0001)                 3.461000000000000E+01,      /* K = 55 */
(PID.TID 0000.0001)                 3.460000000000000E+01,      /* K = 56 */
(PID.TID 0000.0001)     2 @  3.459000000000000E+01,             /* K = 57: 58 */
(PID.TID 0000.0001)                 3.458000000000000E+01,      /* K = 59 */
(PID.TID 0000.0001)     2 @  3.459000000000000E+01,             /* K = 60: 61 */
(PID.TID 0000.0001)     2 @  3.460000000000000E+01,             /* K = 62: 63 */
(PID.TID 0000.0001)                 3.461000000000000E+01,      /* K = 64 */
(PID.TID 0000.0001)                 3.462000000000000E+01,      /* K = 65 */
(PID.TID 0000.0001)                 3.463000000000000E+01,      /* K = 66 */
(PID.TID 0000.0001)                 3.464000000000000E+01,      /* K = 67 */
(PID.TID 0000.0001)                 3.465000000000000E+01,      /* K = 68 */
(PID.TID 0000.0001)                 3.466000000000000E+01,      /* K = 69 */
(PID.TID 0000.0001)     2 @  3.467000000000000E+01,             /* K = 70: 71 */
(PID.TID 0000.0001)                 3.468000000000000E+01,      /* K = 72 */
(PID.TID 0000.0001)                 3.469000000000000E+01,      /* K = 73 */
(PID.TID 0000.0001)                 3.470000000000000E+01,      /* K = 74 */
(PID.TID 0000.0001)     2 @  3.471000000000000E+01,             /* K = 75: 76 */
(PID.TID 0000.0001)     2 @  3.472000000000000E+01,             /* K = 77: 78 */
(PID.TID 0000.0001)     3 @  3.473000000000000E+01,             /* K = 79: 81 */
(PID.TID 0000.0001)     4 @  3.474000000000000E+01,             /* K = 82: 85 */
(PID.TID 0000.0001)                 3.475000000000000E+01,      /* K = 86 */
(PID.TID 0000.0001)     8 @  3.474000000000000E+01,             /* K = 87: 94 */
(PID.TID 0000.0001)     6 @  3.473000000000000E+01              /* K = 95:100 */
(PID.TID 0000.0001)     ;
(PID.TID 0000.0001) useStrainTensionVisc= /* Use StrainTension Form of Viscous Operator */
(PID.TID 0000.0001)                   F
(PID.TID 0000.0001)     ;
(PID.TID 0000.0001) useVariableVisc = /* Use variable horizontal viscosity */
(PID.TID 0000.0001)                   T
(PID.TID 0000.0001)     ;
(PID.TID 0000.0001) useHarmonicVisc = /* Use harmonic horizontal viscosity */
(PID.TID 0000.0001)                   F
(PID.TID 0000.0001)     ;
(PID.TID 0000.0001) useBiharmonicVisc= /* Use biharmonic horiz.  viscosity */
(PID.TID 0000.0001)                   T
(PID.TID 0000.0001)     ;
(PID.TID 0000.0001) useSmag3D = /* Use isotropic 3-D Smagorinsky viscosity */
(PID.TID 0000.0001)                   F
(PID.TID 0000.0001)     ;
(PID.TID 0000.0001) viscAh  =   /* Lateral harmonic viscosity ( m^2/s ) */
(PID.TID 0000.0001)                 0.000000000000000E+00
(PID.TID 0000.0001)     ;
(PID.TID 0000.0001) viscAhMax = /* Maximum lateral harmonic viscosity ( m^2/s ) */
(PID.TID 0000.0001)                 1.000000000000000E+21
(PID.TID 0000.0001)     ;
(PID.TID 0000.0001) viscAhGrid = /* Grid dependent lateral harmonic viscosity ( non-dim. ) */
(PID.TID 0000.0001)                 0.000000000000000E+00
(PID.TID 0000.0001)     ;
(PID.TID 0000.0001) useFullLeith = /* Use Full Form of Leith Viscosity on/off flag*/
(PID.TID 0000.0001)                   F
(PID.TID 0000.0001)     ;
(PID.TID 0000.0001) useAreaViscLength = /* Use area for visc length instead of geom. mean*/
(PID.TID 0000.0001)                   T
(PID.TID 0000.0001)     ;
(PID.TID 0000.0001) viscC2leith = /* Leith harmonic visc. factor (on grad(vort),non-dim.) */
(PID.TID 0000.0001)                 0.000000000000000E+00
(PID.TID 0000.0001)     ;
(PID.TID 0000.0001) viscC2leithD = /* Leith harmonic viscosity factor (on grad(div),non-dim.)*/
(PID.TID 0000.0001)                 0.000000000000000E+00
(PID.TID 0000.0001)     ;
(PID.TID 0000.0001) viscC2smag = /* Smagorinsky harmonic viscosity factor (non-dim.) */
(PID.TID 0000.0001)                 0.000000000000000E+00
(PID.TID 0000.0001)     ;
(PID.TID 0000.0001) viscA4  =   /* Lateral biharmonic viscosity ( m^4/s ) */
(PID.TID 0000.0001)                 0.000000000000000E+00
(PID.TID 0000.0001)     ;
(PID.TID 0000.0001) viscA4Max = /* Maximum biharmonic viscosity ( m^2/s ) */
(PID.TID 0000.0001)                 1.000000000000000E+21
(PID.TID 0000.0001)     ;
(PID.TID 0000.0001) viscA4Grid = /* Grid dependent biharmonic viscosity ( non-dim. ) */
(PID.TID 0000.0001)                 0.000000000000000E+00
(PID.TID 0000.0001)     ;
(PID.TID 0000.0001) viscC4leith = /* Leith biharm viscosity factor (on grad(vort), non-dim.)*/
(PID.TID 0000.0001)                 2.000000000000000E+00
(PID.TID 0000.0001)     ;
(PID.TID 0000.0001) viscC4leithD = /* Leith biharm viscosity factor (on grad(div), non-dim.) */
(PID.TID 0000.0001)                 2.000000000000000E+00
(PID.TID 0000.0001)     ;
(PID.TID 0000.0001) viscC4Smag = /* Smagorinsky biharm viscosity factor (non-dim) */
(PID.TID 0000.0001)                 0.000000000000000E+00
(PID.TID 0000.0001)     ;
(PID.TID 0000.0001) no_slip_sides =  /* Viscous BCs: No-slip sides */
(PID.TID 0000.0001)                   T
(PID.TID 0000.0001)     ;
(PID.TID 0000.0001) sideDragFactor = /* side-drag scaling factor (non-dim) */
(PID.TID 0000.0001)                 2.000000000000000E+00
(PID.TID 0000.0001)     ;
(PID.TID 0000.0001) viscArNr = /* vertical profile of vertical viscosity ( m^2/s )*/
(PID.TID 0000.0001)   100 @  5.000000000000000E-04              /* K =  1:100 */
(PID.TID 0000.0001)     ;
(PID.TID 0000.0001) no_slip_bottom =  /* Viscous BCs: No-slip bottom */
(PID.TID 0000.0001)                   T
(PID.TID 0000.0001)     ;
(PID.TID 0000.0001) bottomVisc_pCell = /* Partial-cell in bottom Visc. BC */
(PID.TID 0000.0001)                   F
(PID.TID 0000.0001)     ;
(PID.TID 0000.0001) bottomDragLinear = /* linear bottom-drag coefficient ( m/s ) */
(PID.TID 0000.0001)                 0.000000000000000E+00
(PID.TID 0000.0001)     ;
(PID.TID 0000.0001) bottomDragQuadratic = /* quadratic bottom-drag coefficient (-) */
(PID.TID 0000.0001)                 2.000000000000000E-03
(PID.TID 0000.0001)     ;
(PID.TID 0000.0001) selectBotDragQuadr = /* select quadratic bottom drag options */
(PID.TID 0000.0001)                       0
(PID.TID 0000.0001)     ;
(PID.TID 0000.0001) diffKhT =   /* Laplacian diffusion of heat laterally ( m^2/s ) */
(PID.TID 0000.0001)                 0.000000000000000E+00
(PID.TID 0000.0001)     ;
(PID.TID 0000.0001) diffK4T =   /* Biharmonic diffusion of heat laterally ( m^4/s ) */
(PID.TID 0000.0001)                 0.000000000000000E+00
(PID.TID 0000.0001)     ;
(PID.TID 0000.0001) diffKhS =   /* Laplacian diffusion of salt laterally ( m^2/s ) */
(PID.TID 0000.0001)                 0.000000000000000E+00
(PID.TID 0000.0001)     ;
(PID.TID 0000.0001) diffK4S =   /* Biharmonic diffusion of salt laterally ( m^4/s ) */
(PID.TID 0000.0001)                 0.000000000000000E+00
(PID.TID 0000.0001)     ;
(PID.TID 0000.0001) diffKrNrT = /* vertical profile of vertical diffusion of Temp ( m^2/s )*/
(PID.TID 0000.0001)   100 @  1.000000000000000E-05              /* K =  1:100 */
(PID.TID 0000.0001)     ;
(PID.TID 0000.0001) diffKrNrS = /* vertical profile of vertical diffusion of Salt ( m^2/s )*/
(PID.TID 0000.0001)   100 @  1.000000000000000E-05              /* K =  1:100 */
(PID.TID 0000.0001)     ;
(PID.TID 0000.0001) diffKrBL79surf = /* Surface diffusion for Bryan and Lewis 79 ( m^2/s ) */
(PID.TID 0000.0001)                 0.000000000000000E+00
(PID.TID 0000.0001)     ;
(PID.TID 0000.0001) diffKrBL79deep = /* Deep diffusion for Bryan and Lewis 1979 ( m^2/s ) */
(PID.TID 0000.0001)                 0.000000000000000E+00
(PID.TID 0000.0001)     ;
(PID.TID 0000.0001) diffKrBL79scl = /* Depth scale for Bryan and Lewis 1979 ( m ) */
(PID.TID 0000.0001)                 2.000000000000000E+02
(PID.TID 0000.0001)     ;
(PID.TID 0000.0001) diffKrBL79Ho = /* Turning depth for Bryan and Lewis 1979 ( m ) */
(PID.TID 0000.0001)                -2.000000000000000E+03
(PID.TID 0000.0001)     ;
(PID.TID 0000.0001) ivdc_kappa = /* Implicit Vertical Diffusivity for Convection ( m^2/s) */
(PID.TID 0000.0001)                 0.000000000000000E+00
(PID.TID 0000.0001)     ;
(PID.TID 0000.0001) hMixCriteria=  /* Criteria for mixed-layer diagnostic */
(PID.TID 0000.0001)                -8.000000000000000E-01
(PID.TID 0000.0001)     ;
(PID.TID 0000.0001) dRhoSmall =  /* Parameter for mixed-layer diagnostic */
(PID.TID 0000.0001)                 1.000000000000000E-06
(PID.TID 0000.0001)     ;
(PID.TID 0000.0001) hMixSmooth=  /* Smoothing parameter for mixed-layer diagnostic */
(PID.TID 0000.0001)                 0.000000000000000E+00
(PID.TID 0000.0001)     ;
(PID.TID 0000.0001) eosType =  /* Type of Equation of State */
(PID.TID 0000.0001)               'JMD95Z'
(PID.TID 0000.0001)     ;
(PID.TID 0000.0001) selectP_inEOS_Zc = /* select pressure to use in EOS (0,1,2,3) */
(PID.TID 0000.0001)                       0
(PID.TID 0000.0001)     0= -g*rhoConst*z ; 1= pRef (from tRef,sRef); 2= Hyd P ; 3= Hyd+NH P
(PID.TID 0000.0001)     ;
(PID.TID 0000.0001) HeatCapacity_Cp =  /* Specific heat capacity ( J/kg/K ) */
(PID.TID 0000.0001)                 3.994000000000000E+03
(PID.TID 0000.0001)     ;
(PID.TID 0000.0001) celsius2K = /* 0 degree Celsius converted to Kelvin ( K ) */
(PID.TID 0000.0001)                 2.731500000000000E+02
(PID.TID 0000.0001)     ;
(PID.TID 0000.0001) rhoConst  = /* Reference density (Boussinesq)  ( kg/m^3 ) */
(PID.TID 0000.0001)                 1.029000000000000E+03
(PID.TID 0000.0001)     ;
(PID.TID 0000.0001) rhoFacC = /* normalized Reference density @ cell-Center (-) */
(PID.TID 0000.0001)   100 @  1.000000000000000E+00              /* K =  1:100 */
(PID.TID 0000.0001)     ;
(PID.TID 0000.0001) rhoFacF = /* normalized Reference density @ W-Interface (-) */
(PID.TID 0000.0001)   101 @  1.000000000000000E+00              /* K =  1:101 */
(PID.TID 0000.0001)     ;
(PID.TID 0000.0001) rhoConstFresh = /* Fresh-water reference density ( kg/m^3 ) */
(PID.TID 0000.0001)                 1.000000000000000E+03
(PID.TID 0000.0001)     ;
(PID.TID 0000.0001) gravity =   /* Gravitational acceleration ( m/s^2 ) */
(PID.TID 0000.0001)                 9.810000000000000E+00
(PID.TID 0000.0001)     ;
(PID.TID 0000.0001) gBaro =   /* Barotropic gravity ( m/s^2 ) */
(PID.TID 0000.0001)                 9.810000000000000E+00
(PID.TID 0000.0001)     ;
(PID.TID 0000.0001) gravFacC = /* gravity factor (vs surf.) @ cell-Center (-) */
(PID.TID 0000.0001)   100 @  1.000000000000000E+00              /* K =  1:100 */
(PID.TID 0000.0001)     ;
(PID.TID 0000.0001) gravFacF = /* gravity factor (vs surf.) @ W-Interface (-) */
(PID.TID 0000.0001)   101 @  1.000000000000000E+00              /* K =  1:101 */
(PID.TID 0000.0001)     ;
(PID.TID 0000.0001) rotationPeriod =   /* Rotation Period ( s ) */
(PID.TID 0000.0001)                 8.616400000000000E+04
(PID.TID 0000.0001)     ;
(PID.TID 0000.0001) omega =   /* Angular velocity ( rad/s ) */
(PID.TID 0000.0001)                 7.292123516990375E-05
(PID.TID 0000.0001)     ;
(PID.TID 0000.0001) f0 =   /* Reference coriolis parameter ( 1/s ) */
(PID.TID 0000.0001)                 1.000000000000000E-04
(PID.TID 0000.0001)     ;
(PID.TID 0000.0001) beta =   /* Beta ( 1/(m.s) ) */
(PID.TID 0000.0001)                 9.999999999999999E-12
(PID.TID 0000.0001)     ;
(PID.TID 0000.0001) fPrime =   /* Second coriolis parameter ( 1/s ) */
(PID.TID 0000.0001)                 0.000000000000000E+00
(PID.TID 0000.0001)     ;
(PID.TID 0000.0001) rigidLid =   /* Rigid lid on/off flag */
(PID.TID 0000.0001)                   F
(PID.TID 0000.0001)     ;
(PID.TID 0000.0001) implicitFreeSurface =   /* Implicit free surface on/off flag */
(PID.TID 0000.0001)                   T
(PID.TID 0000.0001)     ;
(PID.TID 0000.0001) freeSurfFac =   /* Implicit free surface factor */
(PID.TID 0000.0001)                 1.000000000000000E+00
(PID.TID 0000.0001)     ;
(PID.TID 0000.0001) implicSurfPress =  /* Surface Pressure implicit factor (0-1)*/
(PID.TID 0000.0001)                 1.000000000000000E+00
(PID.TID 0000.0001)     ;
(PID.TID 0000.0001) implicDiv2DFlow =  /* Barot. Flow Div. implicit factor (0-1)*/
(PID.TID 0000.0001)                 1.000000000000000E+00
(PID.TID 0000.0001)     ;
(PID.TID 0000.0001) uniformLin_PhiSurf = /* use uniform Bo_surf on/off flag*/
(PID.TID 0000.0001)                   T
(PID.TID 0000.0001)     ;
(PID.TID 0000.0001) uniformFreeSurfLev = /* free-surface level-index is uniform */
(PID.TID 0000.0001)                   T
(PID.TID 0000.0001)     ;
(PID.TID 0000.0001) hFacMin =   /* minimum partial cell factor (hFac) */
(PID.TID 0000.0001)                 2.000000000000000E-01
(PID.TID 0000.0001)     ;
(PID.TID 0000.0001) hFacMinDr = /* minimum partial cell thickness ( m) */
(PID.TID 0000.0001)                 5.000000000000000E+00
(PID.TID 0000.0001)     ;
(PID.TID 0000.0001) exactConserv =  /* Exact Volume Conservation on/off flag*/
(PID.TID 0000.0001)                   T
(PID.TID 0000.0001)     ;
(PID.TID 0000.0001) linFSConserveTr = /* Tracer correction for Lin Free Surface on/off flag*/
(PID.TID 0000.0001)                   F
(PID.TID 0000.0001)     ;
(PID.TID 0000.0001) nonlinFreeSurf = /* Non-linear Free Surf. options (-1,0,1,2,3)*/
(PID.TID 0000.0001)                       0
(PID.TID 0000.0001)      -1,0= Off ; 1,2,3= On, 2=+rescale gU,gV, 3=+update cg2d solv.
(PID.TID 0000.0001)     ;
(PID.TID 0000.0001) hFacInf =   /* lower threshold for hFac (nonlinFreeSurf only)*/
(PID.TID 0000.0001)                 2.000000000000000E-01
(PID.TID 0000.0001)     ;
(PID.TID 0000.0001) hFacSup =   /* upper threshold for hFac (nonlinFreeSurf only)*/
(PID.TID 0000.0001)                 2.000000000000000E+00
(PID.TID 0000.0001)     ;
(PID.TID 0000.0001) select_rStar = /* r* Vertical coord. options (=0 r coord.; >0 uses r*)*/
(PID.TID 0000.0001)                       0
(PID.TID 0000.0001)     ;
(PID.TID 0000.0001) useRealFreshWaterFlux = /* Real Fresh Water Flux on/off flag*/
(PID.TID 0000.0001)                   F
(PID.TID 0000.0001)     ;
(PID.TID 0000.0001) temp_EvPrRn = /* Temp. of Evap/Prec/R (UNSET=use local T)(oC)*/
(PID.TID 0000.0001)                 0.000000000000000E+00
(PID.TID 0000.0001)     ;
(PID.TID 0000.0001) salt_EvPrRn = /* Salin. of Evap/Prec/R (UNSET=use local S)(psu)*/
(PID.TID 0000.0001)                 0.000000000000000E+00
(PID.TID 0000.0001)     ;
(PID.TID 0000.0001) selectAddFluid = /* option for mass source/sink of fluid (=0: off) */
(PID.TID 0000.0001)                       0
(PID.TID 0000.0001)     ;
(PID.TID 0000.0001) temp_addMass = /* Temp. of addMass array (UNSET=use local T)(oC)*/
(PID.TID 0000.0001)                 0.000000000000000E+00
(PID.TID 0000.0001)     ;
(PID.TID 0000.0001) salt_addMass = /* Salin. of addMass array (UNSET=use local S)(psu)*/
(PID.TID 0000.0001)                 0.000000000000000E+00
(PID.TID 0000.0001)     ;
(PID.TID 0000.0001) convertFW2Salt = /* convert F.W. Flux to Salt Flux (-1=use local S)(psu)*/
(PID.TID 0000.0001)                -1.000000000000000E+00
(PID.TID 0000.0001)     ;
(PID.TID 0000.0001) use3Dsolver = /* use 3-D pressure solver on/off flag */
(PID.TID 0000.0001)                   F
(PID.TID 0000.0001)     ;
(PID.TID 0000.0001) nonHydrostatic =  /* Non-Hydrostatic on/off flag */
(PID.TID 0000.0001)                   F
(PID.TID 0000.0001)     ;
(PID.TID 0000.0001) nh_Am2 = /* Non-Hydrostatic terms scaling factor */
(PID.TID 0000.0001)                 1.000000000000000E+00
(PID.TID 0000.0001)     ;
(PID.TID 0000.0001) implicitNHPress = /* Non-Hyd Pressure implicit factor (0-1)*/
(PID.TID 0000.0001)                 1.000000000000000E+00
(PID.TID 0000.0001)     ;
(PID.TID 0000.0001) selectNHfreeSurf = /* Non-Hyd (free-)Surface option */
(PID.TID 0000.0001)                       0
(PID.TID 0000.0001)     ;
(PID.TID 0000.0001) quasiHydrostatic = /* Quasi-Hydrostatic on/off flag */
(PID.TID 0000.0001)                   F
(PID.TID 0000.0001)     ;
(PID.TID 0000.0001) calc_wVelocity = /* vertical velocity calculation on/off flag */
(PID.TID 0000.0001)                   T
(PID.TID 0000.0001)     ;
(PID.TID 0000.0001) momStepping =  /* Momentum equation on/off flag */
(PID.TID 0000.0001)                   T
(PID.TID 0000.0001)     ;
(PID.TID 0000.0001) vectorInvariantMomentum= /* Vector-Invariant Momentum on/off */
(PID.TID 0000.0001)                   T
(PID.TID 0000.0001)     ;
(PID.TID 0000.0001) momAdvection =  /* Momentum advection on/off flag */
(PID.TID 0000.0001)                   T
(PID.TID 0000.0001)     ;
(PID.TID 0000.0001) momViscosity =  /* Momentum viscosity on/off flag */
(PID.TID 0000.0001)                   T
(PID.TID 0000.0001)     ;
(PID.TID 0000.0001) momImplVertAdv= /* Momentum implicit vert. advection on/off*/
(PID.TID 0000.0001)                   F
(PID.TID 0000.0001)     ;
(PID.TID 0000.0001) implicitViscosity = /* Implicit viscosity on/off flag */
(PID.TID 0000.0001)                   T
(PID.TID 0000.0001)     ;
(PID.TID 0000.0001) selectImplicitDrag= /* Implicit bot Drag options (0,1,2)*/
(PID.TID 0000.0001)                       0
(PID.TID 0000.0001)     0= Expl. ; 1= Impl. on provis. Vel ; 2= Fully Impl (with surf.P)
(PID.TID 0000.0001)     ;
(PID.TID 0000.0001) metricTerms =  /* metric-Terms on/off flag */
(PID.TID 0000.0001)                   T
(PID.TID 0000.0001)     ;
(PID.TID 0000.0001) useNHMTerms = /* Non-Hydrostatic Metric-Terms on/off */
(PID.TID 0000.0001)                   F
(PID.TID 0000.0001)     ;
(PID.TID 0000.0001) selectCoriMap = /* Coriolis Map options (0,1,2,3)*/
(PID.TID 0000.0001)                       2
(PID.TID 0000.0001)     0= f-Plane ; 1= Beta-Plane ; 2= Spherical ; 3= read from file
(PID.TID 0000.0001)     ;
(PID.TID 0000.0001) use3dCoriolis = /* 3-D Coriolis on/off flag */
(PID.TID 0000.0001)                   F
(PID.TID 0000.0001)     ;
(PID.TID 0000.0001) useCoriolis =  /* Coriolis on/off flag */
(PID.TID 0000.0001)                   T
(PID.TID 0000.0001)     ;
(PID.TID 0000.0001) useCDscheme =  /* CD scheme on/off flag */
(PID.TID 0000.0001)                   F
(PID.TID 0000.0001)     ;
(PID.TID 0000.0001) useEnergyConservingCoriolis= /* Flx-Form Coriolis scheme flag */
(PID.TID 0000.0001)                   F
(PID.TID 0000.0001)     ;
(PID.TID 0000.0001) useJamartWetPoints= /* Coriolis WetPoints method flag */
(PID.TID 0000.0001)                   F
(PID.TID 0000.0001)     ;
(PID.TID 0000.0001) useJamartMomAdv= /* V.I Non-linear terms Jamart flag */
(PID.TID 0000.0001)                   F
(PID.TID 0000.0001)     ;
(PID.TID 0000.0001) useAbsVorticity= /* V.I Works with f+zeta in Coriolis */
(PID.TID 0000.0001)                   F
(PID.TID 0000.0001)     ;
(PID.TID 0000.0001) selectVortScheme= /* V.I Scheme selector for Vorticity-Term */
(PID.TID 0000.0001)                       0
(PID.TID 0000.0001)    = 0 : enstrophy (Shallow-Water Eq.) conserving scheme by Sadourny, JAS 75
(PID.TID 0000.0001)    = 1 : same as 0 with modified hFac
(PID.TID 0000.0001)    = 2 : energy conserving scheme (used by Sadourny in JAS 75 paper)
(PID.TID 0000.0001)    = 3 : energy (general) and enstrophy (2D, nonDiv.) conserving scheme
(PID.TID 0000.0001)          from Sadourny (Burridge & Haseler, ECMWF Rep.4, 1977)
(PID.TID 0000.0001)     ;
(PID.TID 0000.0001) upwindVorticity= /* V.I Upwind bias vorticity flag */
(PID.TID 0000.0001)                   F
(PID.TID 0000.0001)     ;
(PID.TID 0000.0001) highOrderVorticity= /* V.I High order vort. advect. flag */
(PID.TID 0000.0001)                   T
(PID.TID 0000.0001)     ;
(PID.TID 0000.0001) upwindShear= /* V.I Upwind vertical Shear advection flag */
(PID.TID 0000.0001)                   F
(PID.TID 0000.0001)     ;
(PID.TID 0000.0001) selectKEscheme= /* V.I Kinetic Energy scheme selector */
(PID.TID 0000.0001)                       0
(PID.TID 0000.0001)     ;
(PID.TID 0000.0001) momForcing =  /* Momentum forcing on/off flag */
(PID.TID 0000.0001)                   T
(PID.TID 0000.0001)     ;
(PID.TID 0000.0001) momTidalForcing = /* Momentum Tidal forcing on/off flag */
(PID.TID 0000.0001)                   T
(PID.TID 0000.0001)     ;
(PID.TID 0000.0001) momPressureForcing =  /* Momentum pressure term on/off flag */
(PID.TID 0000.0001)                   T
(PID.TID 0000.0001)     ;
(PID.TID 0000.0001) implicitIntGravWave= /* Implicit Internal Gravity Wave flag */
(PID.TID 0000.0001)                   F
(PID.TID 0000.0001)     ;
(PID.TID 0000.0001) staggerTimeStep =    /* Stagger time stepping on/off flag */
(PID.TID 0000.0001)                   T
(PID.TID 0000.0001)     ;
(PID.TID 0000.0001) doResetHFactors = /* reset thickness factors @ each time-step */
(PID.TID 0000.0001)                   F
(PID.TID 0000.0001)     ;
(PID.TID 0000.0001) multiDimAdvection =  /* enable/disable Multi-Dim Advection */
(PID.TID 0000.0001)                   T
(PID.TID 0000.0001)     ;
(PID.TID 0000.0001) useMultiDimAdvec =   /* Multi-Dim Advection is/is-not used */
(PID.TID 0000.0001)                   T
(PID.TID 0000.0001)     ;
(PID.TID 0000.0001) implicitDiffusion = /* Implicit Diffusion on/off flag */
(PID.TID 0000.0001)                   T
(PID.TID 0000.0001)     ;
(PID.TID 0000.0001) tempStepping =  /* Temperature equation on/off flag */
(PID.TID 0000.0001)                   T
(PID.TID 0000.0001)     ;
(PID.TID 0000.0001) tempAdvection = /* Temperature advection on/off flag */
(PID.TID 0000.0001)                   T
(PID.TID 0000.0001)     ;
(PID.TID 0000.0001) tempImplVertAdv = /* Temp. implicit vert. advection on/off */
(PID.TID 0000.0001)                   F
(PID.TID 0000.0001)     ;
(PID.TID 0000.0001) tempForcing  =  /* Temperature forcing on/off flag */
(PID.TID 0000.0001)                   T
(PID.TID 0000.0001)     ;
(PID.TID 0000.0001) doThetaClimRelax = /* apply SST relaxation on/off flag */
(PID.TID 0000.0001)                   F
(PID.TID 0000.0001)     ;
(PID.TID 0000.0001) tempIsActiveTr = /* Temp. is a dynamically Active Tracer */
(PID.TID 0000.0001)                   T
(PID.TID 0000.0001)     ;
(PID.TID 0000.0001) saltStepping =  /* Salinity equation on/off flag */
(PID.TID 0000.0001)                   T
(PID.TID 0000.0001)     ;
(PID.TID 0000.0001) saltAdvection = /* Salinity advection on/off flag */
(PID.TID 0000.0001)                   T
(PID.TID 0000.0001)     ;
(PID.TID 0000.0001) saltImplVertAdv = /* Sali. implicit vert. advection on/off */
(PID.TID 0000.0001)                   F
(PID.TID 0000.0001)     ;
(PID.TID 0000.0001) saltForcing  =  /* Salinity forcing on/off flag */
(PID.TID 0000.0001)                   T
(PID.TID 0000.0001)     ;
(PID.TID 0000.0001) doSaltClimRelax = /* apply SSS relaxation on/off flag */
(PID.TID 0000.0001)                   F
(PID.TID 0000.0001)     ;
(PID.TID 0000.0001) saltIsActiveTr = /* Salt  is a dynamically Active Tracer */
(PID.TID 0000.0001)                   T
(PID.TID 0000.0001)     ;
(PID.TID 0000.0001)  readBinaryPrec = /* Precision used for reading binary files */
(PID.TID 0000.0001)                      32
(PID.TID 0000.0001)     ;
(PID.TID 0000.0001) writeBinaryPrec = /* Precision used for writing binary files */
(PID.TID 0000.0001)                      32
(PID.TID 0000.0001)     ;
(PID.TID 0000.0001)  rwSuffixType =   /* select format of mds file suffix */
(PID.TID 0000.0001)                       0
(PID.TID 0000.0001)    = 0 : myIter (I10.10) ;   = 1 : 100*myTime (100th sec) ;
(PID.TID 0000.0001)    = 2 : myTime (seconds);   = 3 : myTime/360 (10th of hr);
(PID.TID 0000.0001)    = 4 : myTime/3600 (hours)
(PID.TID 0000.0001)     ;
(PID.TID 0000.0001)  globalFiles = /* write "global" (=not per tile) files */
(PID.TID 0000.0001)                   T
(PID.TID 0000.0001)     ;
(PID.TID 0000.0001)  useSingleCpuIO = /* only master MPI process does I/O */
(PID.TID 0000.0001)                   T
(PID.TID 0000.0001)     ;
(PID.TID 0000.0001)  useSingleCpuInput = /* only master process reads input */
(PID.TID 0000.0001)                   T
(PID.TID 0000.0001)     ;
(PID.TID 0000.0001) /* debLev[*]  : level of debug & auxiliary message printing */
(PID.TID 0000.0001) debLevZero =  0 ; /* level of disabled aux. msg printing */
(PID.TID 0000.0001)    debLevA =  1 ; /* level of minimum  aux. msg printing */
(PID.TID 0000.0001)    debLevB =  2 ; /* level of low aux. print (report read-file opening)*/
(PID.TID 0000.0001)    debLevC =  3 ; /* level of moderate debug prt (most pkgs debug msg) */
(PID.TID 0000.0001)    debLevD =  4 ; /* level of enhanced debug prt (add DEBUG_STATS prt) */
(PID.TID 0000.0001)    debLevE =  5 ; /* level of extensive debug printing */
(PID.TID 0000.0001) debugLevel =  /* select debug printing level */
(PID.TID 0000.0001)                       2
(PID.TID 0000.0001)     ;
(PID.TID 0000.0001)  plotLevel =  /* select PLOT_FIELD printing level */
(PID.TID 0000.0001)                       2
(PID.TID 0000.0001)     ;
(PID.TID 0000.0001) //
(PID.TID 0000.0001) // Elliptic solver(s) paramters ( PARM02 in namelist )
(PID.TID 0000.0001) //
(PID.TID 0000.0001) cg2dMaxIters =   /* Upper limit on 2d con. grad iterations  */
(PID.TID 0000.0001)                    1000
(PID.TID 0000.0001)     ;
(PID.TID 0000.0001) cg2dChkResFreq =   /* 2d con. grad convergence test frequency */
(PID.TID 0000.0001)                       1
(PID.TID 0000.0001)     ;
(PID.TID 0000.0001) cg2dUseMinResSol= /* use cg2d last-iter(=0) / min-resid.(=1) solution */
(PID.TID 0000.0001)                       0
(PID.TID 0000.0001)     ;
(PID.TID 0000.0001) cg2dTargetResidual =   /* 2d con. grad target residual  */
(PID.TID 0000.0001)                 1.000000000000000E-07
(PID.TID 0000.0001)     ;
(PID.TID 0000.0001) cg2dTargetResWunit =   /* CG2d target residual [W units] */
(PID.TID 0000.0001)                 1.000000000000000E-18
(PID.TID 0000.0001)     ;
(PID.TID 0000.0001) cg2dPreCondFreq =   /* Freq. for updating cg2d preconditioner */
(PID.TID 0000.0001)                       1
(PID.TID 0000.0001)     ;
(PID.TID 0000.0001) useSRCGSolver =  /* use single reduction CG solver(s) */
(PID.TID 0000.0001)                   F
(PID.TID 0000.0001)     ;
(PID.TID 0000.0001) printResidualFreq = /* Freq. for printing CG residual */
(PID.TID 0000.0001)                       0
(PID.TID 0000.0001)     ;
(PID.TID 0000.0001) //
(PID.TID 0000.0001) // Time stepping paramters ( PARM03 in namelist )
(PID.TID 0000.0001) //
(PID.TID 0000.0001) deltaTMom =   /* Momentum equation timestep ( s ) */
(PID.TID 0000.0001)                 2.400000000000000E+02
(PID.TID 0000.0001)     ;
(PID.TID 0000.0001) deltaTFreeSurf = /* FreeSurface equation timestep ( s ) */
(PID.TID 0000.0001)                 2.400000000000000E+02
(PID.TID 0000.0001)     ;
(PID.TID 0000.0001) dTtracerLev =  /* Tracer equation timestep ( s ) */
(PID.TID 0000.0001)   100 @  2.400000000000000E+02              /* K =  1:100 */
(PID.TID 0000.0001)     ;
(PID.TID 0000.0001) deltaTClock  =   /* Model clock timestep ( s ) */
(PID.TID 0000.0001)                 2.400000000000000E+02
(PID.TID 0000.0001)     ;
(PID.TID 0000.0001) cAdjFreq =   /* Convective adjustment interval ( s ) */
(PID.TID 0000.0001)                 0.000000000000000E+00
(PID.TID 0000.0001)     ;
(PID.TID 0000.0001) momForcingOutAB = /* =1: take Momentum Forcing out of Adams-Bash. stepping */
(PID.TID 0000.0001)                       1
(PID.TID 0000.0001)     ;
(PID.TID 0000.0001) tracForcingOutAB = /* =1: take T,S,pTr Forcing out of Adams-Bash. stepping */
(PID.TID 0000.0001)                       1
(PID.TID 0000.0001)     ;
(PID.TID 0000.0001) momDissip_In_AB = /* put Dissipation Tendency in Adams-Bash. stepping */
(PID.TID 0000.0001)                   F
(PID.TID 0000.0001)     ;
(PID.TID 0000.0001) doAB_onGtGs = /* apply AB on Tendencies (rather than on T,S)*/
(PID.TID 0000.0001)                   T
(PID.TID 0000.0001)     ;
(PID.TID 0000.0001) abEps =   /* Adams-Bashforth-2 stabilizing weight */
(PID.TID 0000.0001)                 1.000000000000000E-01
(PID.TID 0000.0001)     ;
(PID.TID 0000.0001) applyExchUV_early = /* Apply EXCH to U,V earlier in time-step */
(PID.TID 0000.0001)                   F
(PID.TID 0000.0001)     ;
(PID.TID 0000.0001) pickupStrictlyMatch= /* stop if pickup do not strictly match */
(PID.TID 0000.0001)                   F
(PID.TID 0000.0001)     ;
(PID.TID 0000.0001) nIter0   =   /* Run starting timestep number */
(PID.TID 0000.0001)                       0
(PID.TID 0000.0001)     ;
(PID.TID 0000.0001) nTimeSteps = /* Number of timesteps */
(PID.TID 0000.0001)                      15
(PID.TID 0000.0001)     ;
(PID.TID 0000.0001) nEndIter =   /* Run ending timestep number */
(PID.TID 0000.0001)                      15
(PID.TID 0000.0001)     ;
(PID.TID 0000.0001) baseTime =   /* Model base time ( s ) */
(PID.TID 0000.0001)                 0.000000000000000E+00
(PID.TID 0000.0001)     ;
(PID.TID 0000.0001) startTime =  /* Run start time ( s ) */
(PID.TID 0000.0001)                 0.000000000000000E+00
(PID.TID 0000.0001)     ;
(PID.TID 0000.0001) endTime  =   /* Integration ending time ( s ) */
(PID.TID 0000.0001)                 3.600000000000000E+03
(PID.TID 0000.0001)     ;
(PID.TID 0000.0001) pChkPtFreq = /* Permanent restart/pickup file interval ( s ) */
(PID.TID 0000.0001)                 8.640000000000000E+05
(PID.TID 0000.0001)     ;
(PID.TID 0000.0001) chkPtFreq  = /* Rolling restart/pickup file interval ( s ) */
(PID.TID 0000.0001)                 0.000000000000000E+00
(PID.TID 0000.0001)     ;
(PID.TID 0000.0001) pickup_write_mdsio =   /* Model IO flag. */
(PID.TID 0000.0001)                   T
(PID.TID 0000.0001)     ;
(PID.TID 0000.0001) pickup_read_mdsio =   /* Model IO flag. */
(PID.TID 0000.0001)                   T
(PID.TID 0000.0001)     ;
(PID.TID 0000.0001) writePickupAtEnd =   /* Model IO flag. */
(PID.TID 0000.0001)                   T
(PID.TID 0000.0001)     ;
(PID.TID 0000.0001) dumpFreq =   /* Model state write out interval ( s ). */
(PID.TID 0000.0001)                 0.000000000000000E+00
(PID.TID 0000.0001)     ;
(PID.TID 0000.0001) dumpInitAndLast= /* write out Initial & Last iter. model state */
(PID.TID 0000.0001)                   F
(PID.TID 0000.0001)     ;
(PID.TID 0000.0001) snapshot_mdsio =   /* Model IO flag. */
(PID.TID 0000.0001)                   T
(PID.TID 0000.0001)     ;
(PID.TID 0000.0001) monitorFreq =   /* Monitor output interval ( s ). */
(PID.TID 0000.0001)                 2.400000000000000E+02
(PID.TID 0000.0001)     ;
(PID.TID 0000.0001) monitorSelect = /* select group of variables to monitor */
(PID.TID 0000.0001)                       3
(PID.TID 0000.0001)     ;
(PID.TID 0000.0001) monitor_stdio =   /* Model IO flag. */
(PID.TID 0000.0001)                   T
(PID.TID 0000.0001)     ;
(PID.TID 0000.0001) externForcingPeriod =   /* forcing period (s) */
(PID.TID 0000.0001)                 0.000000000000000E+00
(PID.TID 0000.0001)     ;
(PID.TID 0000.0001) externForcingCycle =   /* period of the cyle (s). */
(PID.TID 0000.0001)                 0.000000000000000E+00
(PID.TID 0000.0001)     ;
(PID.TID 0000.0001) tauThetaClimRelax =   /* relaxation time scale (s) */
(PID.TID 0000.0001)                 0.000000000000000E+00
(PID.TID 0000.0001)     ;
(PID.TID 0000.0001) tauSaltClimRelax =   /* relaxation time scale (s) */
(PID.TID 0000.0001)                 0.000000000000000E+00
(PID.TID 0000.0001)     ;
(PID.TID 0000.0001) latBandClimRelax =   /* max. Lat. where relaxation */
(PID.TID 0000.0001)                 1.800000000000000E+02
(PID.TID 0000.0001)     ;
(PID.TID 0000.0001) //
(PID.TID 0000.0001) // Gridding paramters ( PARM04 in namelist )
(PID.TID 0000.0001) //
(PID.TID 0000.0001) usingCartesianGrid = /* Cartesian coordinates flag ( True/False ) */
(PID.TID 0000.0001)                   F
(PID.TID 0000.0001)     ;
(PID.TID 0000.0001) usingCylindricalGrid = /* Cylindrical coordinates flag ( True/False ) */
(PID.TID 0000.0001)                   F
(PID.TID 0000.0001)     ;
(PID.TID 0000.0001) usingSphericalPolarGrid = /* Spherical coordinates flag ( True/False ) */
(PID.TID 0000.0001)                   T
(PID.TID 0000.0001)     ;
(PID.TID 0000.0001) usingCurvilinearGrid = /* Curvilinear coordinates flag ( True/False ) */
(PID.TID 0000.0001)                   F
(PID.TID 0000.0001)     ;
(PID.TID 0000.0001) useMin4hFacEdges = /* set hFacW,S as minimum of adjacent hFacC factor */
(PID.TID 0000.0001)                   F
(PID.TID 0000.0001)     ;
(PID.TID 0000.0001) interViscAr_pCell = /* account for partial-cell in interior vert. viscosity */
(PID.TID 0000.0001)                   F
(PID.TID 0000.0001)     ;
(PID.TID 0000.0001) interDiffKr_pCell = /* account for partial-cell in interior vert. diffusion */
(PID.TID 0000.0001)                   F
(PID.TID 0000.0001)     ;
(PID.TID 0000.0001) pCellMix_select = /* option to enhance mixing near surface & bottom */
(PID.TID 0000.0001)                       0
(PID.TID 0000.0001)     ;
(PID.TID 0000.0001) selectSigmaCoord = /* Hybrid-Sigma Vert. Coordinate option */
(PID.TID 0000.0001)                       0
(PID.TID 0000.0001)     ;
(PID.TID 0000.0001) rSigmaBnd = /* r/sigma transition ( units of r ==  m ) */
(PID.TID 0000.0001)                 1.234567000000000E+05
(PID.TID 0000.0001)     ;
(PID.TID 0000.0001) rkSign =   /* index orientation relative to vertical coordinate */
(PID.TID 0000.0001)                -1.000000000000000E+00
(PID.TID 0000.0001)     ;
(PID.TID 0000.0001) gravitySign = /* gravity orientation relative to vertical coordinate */
(PID.TID 0000.0001)                -1.000000000000000E+00
(PID.TID 0000.0001)     ;
(PID.TID 0000.0001) seaLev_Z =  /* reference height of sea-level [m] */
(PID.TID 0000.0001)                 0.000000000000000E+00
(PID.TID 0000.0001)     ;
(PID.TID 0000.0001) top_Pres =  /* reference pressure at the top [Pa] */
(PID.TID 0000.0001)                 0.000000000000000E+00
(PID.TID 0000.0001)     ;
(PID.TID 0000.0001) mass2rUnit = /* convert mass per unit area [kg/m2] to r-units [m] */
(PID.TID 0000.0001)                 9.718172983479105E-04
(PID.TID 0000.0001)     ;
(PID.TID 0000.0001) rUnit2mass = /* convert r-units [m] to mass per unit area [kg/m2] */
(PID.TID 0000.0001)                 1.029000000000000E+03
(PID.TID 0000.0001)     ;
(PID.TID 0000.0001) drC =   /* C spacing ( units of r ) */
(PID.TID 0000.0001)                 2.500000000000000E+00,      /* K =  1 */
(PID.TID 0000.0001)    14 @  5.000000000000000E+00,             /* K =  2: 15 */
(PID.TID 0000.0001)                 5.005000000000000E+00,      /* K = 16 */
(PID.TID 0000.0001)                 5.010000000000000E+00,      /* K = 17 */
(PID.TID 0000.0001)                 5.015000000000000E+00,      /* K = 18 */
(PID.TID 0000.0001)                 5.029999999999999E+00,      /* K = 19 */
(PID.TID 0000.0001)                 5.055000000000000E+00,      /* K = 20 */
(PID.TID 0000.0001)                 5.095000000000001E+00,      /* K = 21 */
(PID.TID 0000.0001)                 5.160000000000000E+00,      /* K = 22 */
(PID.TID 0000.0001)                 5.255000000000000E+00,      /* K = 23 */
(PID.TID 0000.0001)                 5.400000000000000E+00,      /* K = 24 */
(PID.TID 0000.0001)                 5.605000000000000E+00,      /* K = 25 */
(PID.TID 0000.0001)                 5.880000000000000E+00,      /* K = 26 */
(PID.TID 0000.0001)                 6.245000000000000E+00,      /* K = 27 */
(PID.TID 0000.0001)                 6.710000000000000E+00,      /* K = 28 */
(PID.TID 0000.0001)                 7.295000000000000E+00,      /* K = 29 */
(PID.TID 0000.0001)                 8.020000000000000E+00,      /* K = 30 */
(PID.TID 0000.0001)                 8.890000000000001E+00,      /* K = 31 */
(PID.TID 0000.0001)                 9.910000000000000E+00,      /* K = 32 */
(PID.TID 0000.0001)                 1.109000000000000E+01,      /* K = 33 */
(PID.TID 0000.0001)                 1.242500000000000E+01,      /* K = 34 */
(PID.TID 0000.0001)                 1.391500000000000E+01,      /* K = 35 */
(PID.TID 0000.0001)                 1.555000000000000E+01,      /* K = 36 */
(PID.TID 0000.0001)                 1.732000000000000E+01,      /* K = 37 */
(PID.TID 0000.0001)                 1.921000000000000E+01,      /* K = 38 */
(PID.TID 0000.0001)                 2.119500000000000E+01,      /* K = 39 */
(PID.TID 0000.0001)                 2.325000000000000E+01,      /* K = 40 */
(PID.TID 0000.0001)                 2.536000000000000E+01,      /* K = 41 */
(PID.TID 0000.0001)                 2.750000000000000E+01,      /* K = 42 */
(PID.TID 0000.0001)                 2.964000000000000E+01,      /* K = 43 */
(PID.TID 0000.0001)                 3.175000000000000E+01,      /* K = 44 */
(PID.TID 0000.0001)                 3.380500000000000E+01,      /* K = 45 */
(PID.TID 0000.0001)                 3.579000000000000E+01,      /* K = 46 */
(PID.TID 0000.0001)                 3.768000000000000E+01,      /* K = 47 */
(PID.TID 0000.0001)                 3.945000000000000E+01,      /* K = 48 */
(PID.TID 0000.0001)                 4.108499999999999E+01,      /* K = 49 */
(PID.TID 0000.0001)                 4.257500000000000E+01,      /* K = 50 */
(PID.TID 0000.0001)                 4.391000000000000E+01,      /* K = 51 */
(PID.TID 0000.0001)                 4.509000000000000E+01,      /* K = 52 */
(PID.TID 0000.0001)                 4.611000000000000E+01,      /* K = 53 */
(PID.TID 0000.0001)                 4.698000000000000E+01,      /* K = 54 */
(PID.TID 0000.0001)                 4.770500000000000E+01,      /* K = 55 */
(PID.TID 0000.0001)                 4.829000000000000E+01,      /* K = 56 */
(PID.TID 0000.0001)                 4.875500000000000E+01,      /* K = 57 */
(PID.TID 0000.0001)                 4.912500000000000E+01,      /* K = 58 */
(PID.TID 0000.0001)                 4.941000000000000E+01,      /* K = 59 */
(PID.TID 0000.0001)                 4.962500000000000E+01,      /* K = 60 */
(PID.TID 0000.0001)                 4.981000000000000E+01,      /* K = 61 */
(PID.TID 0000.0001)                 5.000500000000000E+01,      /* K = 62 */
(PID.TID 0000.0001)                 5.026000000000000E+01,      /* K = 63 */
(PID.TID 0000.0001)                 5.066500000000000E+01,      /* K = 64 */
(PID.TID 0000.0001)                 5.130500000000000E+01,      /* K = 65 */
(PID.TID 0000.0001)                 5.228000000000000E+01,      /* K = 66 */
(PID.TID 0000.0001)                 5.370500000000000E+01,      /* K = 67 */
(PID.TID 0000.0001)                 5.566500000000000E+01,      /* K = 68 */
(PID.TID 0000.0001)                 5.823000000000000E+01,      /* K = 69 */
(PID.TID 0000.0001)                 6.141500000000000E+01,      /* K = 70 */
(PID.TID 0000.0001)                 6.521000000000001E+01,      /* K = 71 */
(PID.TID 0000.0001)                 6.954500000000000E+01,      /* K = 72 */
(PID.TID 0000.0001)                 7.433000000000000E+01,      /* K = 73 */
(PID.TID 0000.0001)                 7.947000000000000E+01,      /* K = 74 */
(PID.TID 0000.0001)                 8.486000000000000E+01,      /* K = 75 */
(PID.TID 0000.0001)                 9.041499999999999E+01,      /* K = 76 */
(PID.TID 0000.0001)                 9.606500000000000E+01,      /* K = 77 */
(PID.TID 0000.0001)                 1.017750000000000E+02,      /* K = 78 */
(PID.TID 0000.0001)                 1.075100000000000E+02,      /* K = 79 */
(PID.TID 0000.0001)                 1.132500000000000E+02,      /* K = 80 */
(PID.TID 0000.0001)                 1.189950000000000E+02,      /* K = 81 */
(PID.TID 0000.0001)                 1.247500000000000E+02,      /* K = 82 */
(PID.TID 0000.0001)                 1.305050000000000E+02,      /* K = 83 */
(PID.TID 0000.0001)                 1.362500000000000E+02,      /* K = 84 */
(PID.TID 0000.0001)                 1.419950000000000E+02,      /* K = 85 */
(PID.TID 0000.0001)                 1.477500000000000E+02,      /* K = 86 */
(PID.TID 0000.0001)                 1.535050000000000E+02,      /* K = 87 */
(PID.TID 0000.0001)                 1.592500000000000E+02,      /* K = 88 */
(PID.TID 0000.0001)                 1.649950000000000E+02,      /* K = 89 */
(PID.TID 0000.0001)                 1.707500000000000E+02,      /* K = 90 */
(PID.TID 0000.0001)                 1.765050000000000E+02,      /* K = 91 */
(PID.TID 0000.0001)                 1.822500000000000E+02,      /* K = 92 */
(PID.TID 0000.0001)                 1.879950000000000E+02,      /* K = 93 */
(PID.TID 0000.0001)                 1.937500000000000E+02,      /* K = 94 */
(PID.TID 0000.0001)                 1.995050000000000E+02,      /* K = 95 */
(PID.TID 0000.0001)                 2.052500000000000E+02,      /* K = 96 */
(PID.TID 0000.0001)                 2.109950000000000E+02,      /* K = 97 */
(PID.TID 0000.0001)                 2.167500000000000E+02,      /* K = 98 */
(PID.TID 0000.0001)                 2.225050000000000E+02,      /* K = 99 */
(PID.TID 0000.0001)                 2.282500000000000E+02,      /* K =100 */
(PID.TID 0000.0001)                 1.155600000000000E+02       /* K =101 */
(PID.TID 0000.0001)     ;
(PID.TID 0000.0001) drF =   /* W spacing ( units of r ) */
(PID.TID 0000.0001)    15 @  5.000000000000000E+00,             /* K =  1: 15 */
(PID.TID 0000.0001)     2 @  5.010000000000000E+00,             /* K = 16: 17 */
(PID.TID 0000.0001)                 5.020000000000000E+00,      /* K = 18 */
(PID.TID 0000.0001)                 5.040000000000000E+00,      /* K = 19 */
(PID.TID 0000.0001)                 5.070000000000000E+00,      /* K = 20 */
(PID.TID 0000.0001)                 5.120000000000000E+00,      /* K = 21 */
(PID.TID 0000.0001)                 5.200000000000000E+00,      /* K = 22 */
(PID.TID 0000.0001)                 5.310000000000000E+00,      /* K = 23 */
(PID.TID 0000.0001)                 5.490000000000000E+00,      /* K = 24 */
(PID.TID 0000.0001)                 5.720000000000000E+00,      /* K = 25 */
(PID.TID 0000.0001)                 6.040000000000000E+00,      /* K = 26 */
(PID.TID 0000.0001)                 6.450000000000000E+00,      /* K = 27 */
(PID.TID 0000.0001)                 6.970000000000000E+00,      /* K = 28 */
(PID.TID 0000.0001)                 7.620000000000000E+00,      /* K = 29 */
(PID.TID 0000.0001)                 8.420000000000000E+00,      /* K = 30 */
(PID.TID 0000.0001)                 9.359999999999999E+00,      /* K = 31 */
(PID.TID 0000.0001)                 1.046000000000000E+01,      /* K = 32 */
(PID.TID 0000.0001)                 1.172000000000000E+01,      /* K = 33 */
(PID.TID 0000.0001)                 1.313000000000000E+01,      /* K = 34 */
(PID.TID 0000.0001)                 1.470000000000000E+01,      /* K = 35 */
(PID.TID 0000.0001)                 1.640000000000000E+01,      /* K = 36 */
(PID.TID 0000.0001)                 1.824000000000000E+01,      /* K = 37 */
(PID.TID 0000.0001)                 2.018000000000000E+01,      /* K = 38 */
(PID.TID 0000.0001)                 2.221000000000000E+01,      /* K = 39 */
(PID.TID 0000.0001)                 2.429000000000000E+01,      /* K = 40 */
(PID.TID 0000.0001)                 2.643000000000000E+01,      /* K = 41 */
(PID.TID 0000.0001)                 2.857000000000000E+01,      /* K = 42 */
(PID.TID 0000.0001)                 3.071000000000000E+01,      /* K = 43 */
(PID.TID 0000.0001)                 3.279000000000000E+01,      /* K = 44 */
(PID.TID 0000.0001)                 3.482000000000000E+01,      /* K = 45 */
(PID.TID 0000.0001)                 3.676000000000000E+01,      /* K = 46 */
(PID.TID 0000.0001)                 3.860000000000000E+01,      /* K = 47 */
(PID.TID 0000.0001)                 4.030000000000000E+01,      /* K = 48 */
(PID.TID 0000.0001)                 4.187000000000000E+01,      /* K = 49 */
(PID.TID 0000.0001)                 4.328000000000000E+01,      /* K = 50 */
(PID.TID 0000.0001)                 4.454000000000000E+01,      /* K = 51 */
(PID.TID 0000.0001)                 4.564000000000000E+01,      /* K = 52 */
(PID.TID 0000.0001)                 4.658000000000000E+01,      /* K = 53 */
(PID.TID 0000.0001)                 4.738000000000000E+01,      /* K = 54 */
(PID.TID 0000.0001)                 4.803000000000000E+01,      /* K = 55 */
(PID.TID 0000.0001)                 4.855000000000000E+01,      /* K = 56 */
(PID.TID 0000.0001)                 4.896000000000000E+01,      /* K = 57 */
(PID.TID 0000.0001)                 4.929000000000000E+01,      /* K = 58 */
(PID.TID 0000.0001)                 4.953000000000000E+01,      /* K = 59 */
(PID.TID 0000.0001)                 4.972000000000000E+01,      /* K = 60 */
(PID.TID 0000.0001)                 4.990000000000000E+01,      /* K = 61 */
(PID.TID 0000.0001)                 5.011000000000000E+01,      /* K = 62 */
(PID.TID 0000.0001)                 5.041000000000000E+01,      /* K = 63 */
(PID.TID 0000.0001)                 5.092000000000000E+01,      /* K = 64 */
(PID.TID 0000.0001)                 5.169000000000000E+01,      /* K = 65 */
(PID.TID 0000.0001)                 5.287000000000000E+01,      /* K = 66 */
(PID.TID 0000.0001)                 5.454000000000000E+01,      /* K = 67 */
(PID.TID 0000.0001)                 5.679000000000000E+01,      /* K = 68 */
(PID.TID 0000.0001)                 5.967000000000000E+01,      /* K = 69 */
(PID.TID 0000.0001)                 6.316000000000000E+01,      /* K = 70 */
(PID.TID 0000.0001)                 6.726000000000001E+01,      /* K = 71 */
(PID.TID 0000.0001)                 7.183000000000000E+01,      /* K = 72 */
(PID.TID 0000.0001)                 7.683000000000000E+01,      /* K = 73 */
(PID.TID 0000.0001)                 8.211000000000000E+01,      /* K = 74 */
(PID.TID 0000.0001)                 8.761000000000000E+01,      /* K = 75 */
(PID.TID 0000.0001)                 9.322000000000000E+01,      /* K = 76 */
(PID.TID 0000.0001)                 9.891000000000000E+01,      /* K = 77 */
(PID.TID 0000.0001)                 1.046400000000000E+02,      /* K = 78 */
(PID.TID 0000.0001)                 1.103800000000000E+02,      /* K = 79 */
(PID.TID 0000.0001)                 1.161200000000000E+02,      /* K = 80 */
(PID.TID 0000.0001)                 1.218700000000000E+02,      /* K = 81 */
(PID.TID 0000.0001)                 1.276300000000000E+02,      /* K = 82 */
(PID.TID 0000.0001)                 1.333800000000000E+02,      /* K = 83 */
(PID.TID 0000.0001)                 1.391200000000000E+02,      /* K = 84 */
(PID.TID 0000.0001)                 1.448700000000000E+02,      /* K = 85 */
(PID.TID 0000.0001)                 1.506300000000000E+02,      /* K = 86 */
(PID.TID 0000.0001)                 1.563800000000000E+02,      /* K = 87 */
(PID.TID 0000.0001)                 1.621200000000000E+02,      /* K = 88 */
(PID.TID 0000.0001)                 1.678700000000000E+02,      /* K = 89 */
(PID.TID 0000.0001)                 1.736300000000000E+02,      /* K = 90 */
(PID.TID 0000.0001)                 1.793800000000000E+02,      /* K = 91 */
(PID.TID 0000.0001)                 1.851200000000000E+02,      /* K = 92 */
(PID.TID 0000.0001)                 1.908700000000000E+02,      /* K = 93 */
(PID.TID 0000.0001)                 1.966300000000000E+02,      /* K = 94 */
(PID.TID 0000.0001)                 2.023800000000000E+02,      /* K = 95 */
(PID.TID 0000.0001)                 2.081200000000000E+02,      /* K = 96 */
(PID.TID 0000.0001)                 2.138700000000000E+02,      /* K = 97 */
(PID.TID 0000.0001)                 2.196300000000000E+02,      /* K = 98 */
(PID.TID 0000.0001)                 2.253800000000000E+02,      /* K = 99 */
(PID.TID 0000.0001)                 2.311200000000000E+02       /* K =100 */
(PID.TID 0000.0001)     ;
(PID.TID 0000.0001) delX = /* U spacing ( m - cartesian, degrees - spherical ) */
(PID.TID 0000.0001)  1815 @  4.166666666666700E-02              /* I =   1:1815 */
(PID.TID 0000.0001)     ;
(PID.TID 0000.0001) delY = /* V spacing ( m - cartesian, degrees - spherical ) */
(PID.TID 0000.0001)                 3.417015075683594E-02,      /* J =  1 */
(PID.TID 0000.0001)                 3.416061401367188E-02,      /* J =  2 */
(PID.TID 0000.0001)                 3.415107727050781E-02,      /* J =  3 */
(PID.TID 0000.0001)      . . .
(PID.TID 0000.0001)                 3.279495239257812E-02,      /* J =131 */
(PID.TID 0000.0001)                 3.278350830078125E-02,      /* J =132 */
(PID.TID 0000.0001)                 3.277397155761719E-02,      /* J =133 */
(PID.TID 0000.0001)                 3.276252746582031E-02,      /* J =134 */
(PID.TID 0000.0001)                 3.275299072265625E-02,      /* J =135 */
(PID.TID 0000.0001)                 3.273963928222656E-02,      /* J =136 */
(PID.TID 0000.0001)      . . .
(PID.TID 0000.0001)                 3.129959106445312E-02,      /* J =264 */
(PID.TID 0000.0001)                 3.128814697265625E-02,      /* J =265 */
(PID.TID 0000.0001)                 3.127288818359375E-02,      /* J =266 */
(PID.TID 0000.0001)                 3.126525878906250E-02,      /* J =267 */
(PID.TID 0000.0001)                 3.125000000000000E-02,      /* J =268 */
(PID.TID 0000.0001)                 3.124237060546875E-02,      /* J =269 */
(PID.TID 0000.0001)      . . .
(PID.TID 0000.0001)                 2.974700927734375E-02,      /* J =397 */
(PID.TID 0000.0001)                 2.973175048828125E-02,      /* J =398 */
(PID.TID 0000.0001)                 2.971649169921875E-02,      /* J =399 */
(PID.TID 0000.0001)                 2.970886230468750E-02,      /* J =400 */
(PID.TID 0000.0001)                 2.969741821289062E-02,      /* J =401 */
(PID.TID 0000.0001)                 2.968597412109375E-02,      /* J =402 */
(PID.TID 0000.0001)      . . .
(PID.TID 0000.0001)                 2.816009521484375E-02,      /* J =530 */
(PID.TID 0000.0001)                 2.815246582031250E-02,      /* J =531 */
(PID.TID 0000.0001)                 2.813720703125000E-02       /* J =532 */
(PID.TID 0000.0001)     ;
(PID.TID 0000.0001) xgOrigin = /* X-axis origin of West  edge (cartesian: m, lat-lon: deg) */
(PID.TID 0000.0001)                -8.158333587646484E+01
(PID.TID 0000.0001)     ;
(PID.TID 0000.0001) ygOrigin = /* Y-axis origin of South edge (cartesian: m, lat-lon: deg) */
(PID.TID 0000.0001)                 2.685529327392578E+01
(PID.TID 0000.0001)     ;
(PID.TID 0000.0001) rSphere =  /* Radius ( ignored - cartesian, m - spherical ) */
(PID.TID 0000.0001)                 6.370000000000000E+06
(PID.TID 0000.0001)     ;
(PID.TID 0000.0001) deepAtmosphere = /* Deep/Shallow Atmosphere flag (True/False) */
(PID.TID 0000.0001)                   F
(PID.TID 0000.0001)     ;
(PID.TID 0000.0001) xC =  /* xC(:,1,:,1) : P-point X coord ( deg. or m if cartesian) */
(PID.TID 0000.0001)                -8.156250254313150E+01,      /* I =  1 */
(PID.TID 0000.0001)                -8.152083587646484E+01,      /* I =  2 */
(PID.TID 0000.0001)                -8.147916920979816E+01,      /* I =  3 */
(PID.TID 0000.0001)      . . .
(PID.TID 0000.0001)                -7.822916920979779E+01,      /* I = 81 */
(PID.TID 0000.0001)                -7.818750254313113E+01,      /* I = 82 */
(PID.TID 0000.0001)                -7.814583587646445E+01,      /* I = 83 */
(PID.TID 0000.0001)                -7.810416920979779E+01,      /* I = 84 */
(PID.TID 0000.0001)                -7.806250254313110E+01,      /* I = 85 */
(PID.TID 0000.0001)                -7.802083587646445E+01,      /* I = 86 */
(PID.TID 0000.0001)      . . .
(PID.TID 0000.0001)                -7.481250254313073E+01,      /* I =163 */
(PID.TID 0000.0001)                -7.477083587646408E+01,      /* I =164 */
(PID.TID 0000.0001)                -7.472916920979739E+01,      /* I =165 */
(PID.TID 0000.0001)                -7.468750254313073E+01,      /* I =166 */
(PID.TID 0000.0001)                -7.464583587646405E+01,      /* I =167 */
(PID.TID 0000.0001)                -7.460416920979739E+01,      /* I =168 */
(PID.TID 0000.0001)      . . .
(PID.TID 0000.0001)                -7.139583587646368E+01,      /* I =245 */
(PID.TID 0000.0001)                -7.135416920979702E+01,      /* I =246 */
(PID.TID 0000.0001)                -7.131250254313034E+01,      /* I =247 */
(PID.TID 0000.0001)                -7.127083587646368E+01,      /* I =248 */
(PID.TID 0000.0001)                -7.122916920979699E+01,      /* I =249 */
(PID.TID 0000.0001)                -7.118750254313034E+01,      /* I =250 */
(PID.TID 0000.0001)      . . .
(PID.TID 0000.0001)                -6.793750254312997E+01,      /* I =328 */
(PID.TID 0000.0001)                -6.789583587646328E+01,      /* I =329 */
(PID.TID 0000.0001)                -6.785416920979662E+01       /* I =330 */
(PID.TID 0000.0001)     ;
(PID.TID 0000.0001) yC =  /* yC(1,:,1,:) : P-point Y coord ( deg. or m if cartesian) */
(PID.TID 0000.0001)                 2.687237834930420E+01,      /* J =  1 */
(PID.TID 0000.0001)                 2.690654373168945E+01,      /* J =  2 */
(PID.TID 0000.0001)                 2.694069957733154E+01,      /* J =  3 */
(PID.TID 0000.0001)                 2.697484493255615E+01,      /* J =  4 */
(PID.TID 0000.0001)                 2.700897979736328E+01,      /* J =  5 */
(PID.TID 0000.0001)                 2.704310512542725E+01,      /* J =  6 */
(PID.TID 0000.0001)                 2.707721996307373E+01,      /* J =  7 */
(PID.TID 0000.0001)                 2.711132431030273E+01,      /* J =  8 */
(PID.TID 0000.0001)                 2.714541912078857E+01,      /* J =  9 */
(PID.TID 0000.0001)                 2.717950344085693E+01,      /* J = 10 */
(PID.TID 0000.0001)                 2.721357727050781E+01,      /* J = 11 */
(PID.TID 0000.0001)                 2.724764060974121E+01,      /* J = 12 */
(PID.TID 0000.0001)                 2.728169441223145E+01,      /* J = 13 */
(PID.TID 0000.0001)                 2.731573772430420E+01,      /* J = 14 */
(PID.TID 0000.0001)                 2.734977054595947E+01,      /* J = 15 */
(PID.TID 0000.0001)                 2.738379383087158E+01,      /* J = 16 */
(PID.TID 0000.0001)                 2.741780662536621E+01,      /* J = 17 */
(PID.TID 0000.0001)                 2.745180892944336E+01,      /* J = 18 */
(PID.TID 0000.0001)                 2.748580074310303E+01,      /* J = 19 */
(PID.TID 0000.0001)                 2.751978206634521E+01,      /* J = 20 */
(PID.TID 0000.0001)                 2.755375289916992E+01,      /* J = 21 */
(PID.TID 0000.0001)                 2.758771419525146E+01,      /* J = 22 */
(PID.TID 0000.0001)                 2.762166500091553E+01,      /* J = 23 */
(PID.TID 0000.0001)                 2.765560531616211E+01,      /* J = 24 */
(PID.TID 0000.0001)                 2.768953609466553E+01,      /* J = 25 */
(PID.TID 0000.0001)                 2.772345638275146E+01,      /* J = 26 */
(PID.TID 0000.0001)                 2.775736522674561E+01,      /* J = 27 */
(PID.TID 0000.0001)                 2.779126453399658E+01       /* J = 28 */
(PID.TID 0000.0001)     ;
(PID.TID 0000.0001) rcoord = /* P-point R coordinate (  units of r ) */
(PID.TID 0000.0001)                -2.500000000000000E+00,      /* K =  1 */
(PID.TID 0000.0001)                -7.500000000000000E+00,      /* K =  2 */
(PID.TID 0000.0001)                -1.250000000000000E+01,      /* K =  3 */
(PID.TID 0000.0001)                -1.750000000000000E+01,      /* K =  4 */
(PID.TID 0000.0001)                -2.250000000000000E+01,      /* K =  5 */
(PID.TID 0000.0001)                -2.750000000000000E+01,      /* K =  6 */
(PID.TID 0000.0001)                -3.250000000000000E+01,      /* K =  7 */
(PID.TID 0000.0001)                -3.750000000000000E+01,      /* K =  8 */
(PID.TID 0000.0001)                -4.250000000000000E+01,      /* K =  9 */
(PID.TID 0000.0001)                -4.750000000000000E+01,      /* K = 10 */
(PID.TID 0000.0001)                -5.250000000000000E+01,      /* K = 11 */
(PID.TID 0000.0001)                -5.750000000000000E+01,      /* K = 12 */
(PID.TID 0000.0001)                -6.250000000000000E+01,      /* K = 13 */
(PID.TID 0000.0001)                -6.750000000000000E+01,      /* K = 14 */
(PID.TID 0000.0001)                -7.250000000000000E+01,      /* K = 15 */
(PID.TID 0000.0001)                -7.750500000000000E+01,      /* K = 16 */
(PID.TID 0000.0001)                -8.251500000000000E+01,      /* K = 17 */
(PID.TID 0000.0001)                -8.753000000000000E+01,      /* K = 18 */
(PID.TID 0000.0001)                -9.256000000000000E+01,      /* K = 19 */
(PID.TID 0000.0001)                -9.761500000000001E+01,      /* K = 20 */
(PID.TID 0000.0001)                -1.027100000000000E+02,      /* K = 21 */
(PID.TID 0000.0001)                -1.078700000000000E+02,      /* K = 22 */
(PID.TID 0000.0001)                -1.131250000000000E+02,      /* K = 23 */
(PID.TID 0000.0001)                -1.185250000000000E+02,      /* K = 24 */
(PID.TID 0000.0001)                -1.241300000000000E+02,      /* K = 25 */
(PID.TID 0000.0001)                -1.300100000000000E+02,      /* K = 26 */
(PID.TID 0000.0001)                -1.362550000000000E+02,      /* K = 27 */
(PID.TID 0000.0001)                -1.429650000000000E+02,      /* K = 28 */
(PID.TID 0000.0001)                -1.502600000000000E+02,      /* K = 29 */
(PID.TID 0000.0001)                -1.582800000000000E+02,      /* K = 30 */
(PID.TID 0000.0001)                -1.671700000000000E+02,      /* K = 31 */
(PID.TID 0000.0001)                -1.770800000000000E+02,      /* K = 32 */
(PID.TID 0000.0001)                -1.881700000000000E+02,      /* K = 33 */
(PID.TID 0000.0001)                -2.005950000000000E+02,      /* K = 34 */
(PID.TID 0000.0001)                -2.145100000000000E+02,      /* K = 35 */
(PID.TID 0000.0001)                -2.300600000000000E+02,      /* K = 36 */
(PID.TID 0000.0001)                -2.473800000000000E+02,      /* K = 37 */
(PID.TID 0000.0001)                -2.665900000000000E+02,      /* K = 38 */
(PID.TID 0000.0001)                -2.877850000000000E+02,      /* K = 39 */
(PID.TID 0000.0001)                -3.110350000000000E+02,      /* K = 40 */
(PID.TID 0000.0001)                -3.363950000000000E+02,      /* K = 41 */
(PID.TID 0000.0001)                -3.638950000000000E+02,      /* K = 42 */
(PID.TID 0000.0001)                -3.935350000000000E+02,      /* K = 43 */
(PID.TID 0000.0001)                -4.252850000000000E+02,      /* K = 44 */
(PID.TID 0000.0001)                -4.590900000000000E+02,      /* K = 45 */
(PID.TID 0000.0001)                -4.948800000000001E+02,      /* K = 46 */
(PID.TID 0000.0001)                -5.325600000000001E+02,      /* K = 47 */
(PID.TID 0000.0001)                -5.720100000000001E+02,      /* K = 48 */
(PID.TID 0000.0001)                -6.130950000000001E+02,      /* K = 49 */
(PID.TID 0000.0001)                -6.556700000000002E+02,      /* K = 50 */
(PID.TID 0000.0001)                -6.995800000000002E+02,      /* K = 51 */
(PID.TID 0000.0001)                -7.446700000000002E+02,      /* K = 52 */
(PID.TID 0000.0001)                -7.907800000000002E+02,      /* K = 53 */
(PID.TID 0000.0001)                -8.377600000000002E+02,      /* K = 54 */
(PID.TID 0000.0001)                -8.854650000000003E+02,      /* K = 55 */
(PID.TID 0000.0001)                -9.337550000000002E+02,      /* K = 56 */
(PID.TID 0000.0001)                -9.825100000000002E+02,      /* K = 57 */
(PID.TID 0000.0001)                -1.031635000000000E+03,      /* K = 58 */
(PID.TID 0000.0001)                -1.081045000000000E+03,      /* K = 59 */
(PID.TID 0000.0001)                -1.130670000000000E+03,      /* K = 60 */
(PID.TID 0000.0001)                -1.180480000000000E+03,      /* K = 61 */
(PID.TID 0000.0001)                -1.230485000000000E+03,      /* K = 62 */
(PID.TID 0000.0001)                -1.280745000000000E+03,      /* K = 63 */
(PID.TID 0000.0001)                -1.331410000000000E+03,      /* K = 64 */
(PID.TID 0000.0001)                -1.382715000000000E+03,      /* K = 65 */
(PID.TID 0000.0001)                -1.434995000000000E+03,      /* K = 66 */
(PID.TID 0000.0001)                -1.488700000000000E+03,      /* K = 67 */
(PID.TID 0000.0001)                -1.544365000000000E+03,      /* K = 68 */
(PID.TID 0000.0001)                -1.602595000000000E+03,      /* K = 69 */
(PID.TID 0000.0001)                -1.664010000000000E+03,      /* K = 70 */
(PID.TID 0000.0001)                -1.729220000000000E+03,      /* K = 71 */
(PID.TID 0000.0001)                -1.798765000000000E+03,      /* K = 72 */
(PID.TID 0000.0001)                -1.873095000000000E+03,      /* K = 73 */
(PID.TID 0000.0001)                -1.952565000000000E+03,      /* K = 74 */
(PID.TID 0000.0001)                -2.037425000000000E+03,      /* K = 75 */
(PID.TID 0000.0001)                -2.127840000000000E+03,      /* K = 76 */
(PID.TID 0000.0001)                -2.223905000000000E+03,      /* K = 77 */
(PID.TID 0000.0001)                -2.325680000000000E+03,      /* K = 78 */
(PID.TID 0000.0001)                -2.433190000000001E+03,      /* K = 79 */
(PID.TID 0000.0001)                -2.546440000000001E+03,      /* K = 80 */
(PID.TID 0000.0001)                -2.665435000000000E+03,      /* K = 81 */
(PID.TID 0000.0001)                -2.790185000000000E+03,      /* K = 82 */
(PID.TID 0000.0001)                -2.920690000000001E+03,      /* K = 83 */
(PID.TID 0000.0001)                -3.056940000000001E+03,      /* K = 84 */
(PID.TID 0000.0001)                -3.198935000000000E+03,      /* K = 85 */
(PID.TID 0000.0001)                -3.346685000000000E+03,      /* K = 86 */
(PID.TID 0000.0001)                -3.500190000000001E+03,      /* K = 87 */
(PID.TID 0000.0001)                -3.659440000000001E+03,      /* K = 88 */
(PID.TID 0000.0001)                -3.824435000000000E+03,      /* K = 89 */
(PID.TID 0000.0001)                -3.995185000000000E+03,      /* K = 90 */
(PID.TID 0000.0001)                -4.171690000000001E+03,      /* K = 91 */
(PID.TID 0000.0001)                -4.353940000000001E+03,      /* K = 92 */
(PID.TID 0000.0001)                -4.541935000000000E+03,      /* K = 93 */
(PID.TID 0000.0001)                -4.735685000000000E+03,      /* K = 94 */
(PID.TID 0000.0001)                -4.935190000000001E+03,      /* K = 95 */
(PID.TID 0000.0001)                -5.140440000000001E+03,      /* K = 96 */
(PID.TID 0000.0001)                -5.351435000000000E+03,      /* K = 97 */
(PID.TID 0000.0001)                -5.568185000000000E+03,      /* K = 98 */
(PID.TID 0000.0001)                -5.790690000000001E+03,      /* K = 99 */
(PID.TID 0000.0001)                -6.018940000000001E+03       /* K =100 */
(PID.TID 0000.0001)     ;
(PID.TID 0000.0001) rF =   /* W-Interf. R coordinate (  units of r ) */
(PID.TID 0000.0001)                 0.000000000000000E+00,      /* K =  1 */
(PID.TID 0000.0001)                -5.000000000000000E+00,      /* K =  2 */
(PID.TID 0000.0001)                -1.000000000000000E+01,      /* K =  3 */
(PID.TID 0000.0001)                -1.500000000000000E+01,      /* K =  4 */
(PID.TID 0000.0001)                -2.000000000000000E+01,      /* K =  5 */
(PID.TID 0000.0001)                -2.500000000000000E+01,      /* K =  6 */
(PID.TID 0000.0001)                -3.000000000000000E+01,      /* K =  7 */
(PID.TID 0000.0001)                -3.500000000000000E+01,      /* K =  8 */
(PID.TID 0000.0001)                -4.000000000000000E+01,      /* K =  9 */
(PID.TID 0000.0001)                -4.500000000000000E+01,      /* K = 10 */
(PID.TID 0000.0001)                -5.000000000000000E+01,      /* K = 11 */
(PID.TID 0000.0001)                -5.500000000000000E+01,      /* K = 12 */
(PID.TID 0000.0001)                -6.000000000000000E+01,      /* K = 13 */
(PID.TID 0000.0001)                -6.500000000000000E+01,      /* K = 14 */
(PID.TID 0000.0001)                -7.000000000000000E+01,      /* K = 15 */
(PID.TID 0000.0001)                -7.500000000000000E+01,      /* K = 16 */
(PID.TID 0000.0001)                -8.001000000000001E+01,      /* K = 17 */
(PID.TID 0000.0001)                -8.502000000000001E+01,      /* K = 18 */
(PID.TID 0000.0001)                -9.004000000000001E+01,      /* K = 19 */
(PID.TID 0000.0001)                -9.508000000000001E+01,      /* K = 20 */
(PID.TID 0000.0001)                -1.001500000000000E+02,      /* K = 21 */
(PID.TID 0000.0001)                -1.052700000000000E+02,      /* K = 22 */
(PID.TID 0000.0001)                -1.104700000000000E+02,      /* K = 23 */
(PID.TID 0000.0001)                -1.157800000000000E+02,      /* K = 24 */
(PID.TID 0000.0001)                -1.212700000000000E+02,      /* K = 25 */
(PID.TID 0000.0001)                -1.269900000000000E+02,      /* K = 26 */
(PID.TID 0000.0001)                -1.330300000000000E+02,      /* K = 27 */
(PID.TID 0000.0001)                -1.394800000000000E+02,      /* K = 28 */
(PID.TID 0000.0001)                -1.464500000000000E+02,      /* K = 29 */
(PID.TID 0000.0001)                -1.540700000000000E+02,      /* K = 30 */
(PID.TID 0000.0001)                -1.624900000000000E+02,      /* K = 31 */
(PID.TID 0000.0001)                -1.718500000000000E+02,      /* K = 32 */
(PID.TID 0000.0001)                -1.823100000000000E+02,      /* K = 33 */
(PID.TID 0000.0001)                -1.940300000000000E+02,      /* K = 34 */
(PID.TID 0000.0001)                -2.071600000000000E+02,      /* K = 35 */
(PID.TID 0000.0001)                -2.218600000000000E+02,      /* K = 36 */
(PID.TID 0000.0001)                -2.382600000000000E+02,      /* K = 37 */
(PID.TID 0000.0001)                -2.564999999999999E+02,      /* K = 38 */
(PID.TID 0000.0001)                -2.766799999999999E+02,      /* K = 39 */
(PID.TID 0000.0001)                -2.988899999999999E+02,      /* K = 40 */
(PID.TID 0000.0001)                -3.231799999999999E+02,      /* K = 41 */
(PID.TID 0000.0001)                -3.496100000000000E+02,      /* K = 42 */
(PID.TID 0000.0001)                -3.781799999999999E+02,      /* K = 43 */
(PID.TID 0000.0001)                -4.088899999999999E+02,      /* K = 44 */
(PID.TID 0000.0001)                -4.416799999999999E+02,      /* K = 45 */
(PID.TID 0000.0001)                -4.764999999999999E+02,      /* K = 46 */
(PID.TID 0000.0001)                -5.132600000000000E+02,      /* K = 47 */
(PID.TID 0000.0001)                -5.518600000000000E+02,      /* K = 48 */
(PID.TID 0000.0001)                -5.921600000000000E+02,      /* K = 49 */
(PID.TID 0000.0001)                -6.340300000000000E+02,      /* K = 50 */
(PID.TID 0000.0001)                -6.773099999999999E+02,      /* K = 51 */
(PID.TID 0000.0001)                -7.218499999999999E+02,      /* K = 52 */
(PID.TID 0000.0001)                -7.674899999999999E+02,      /* K = 53 */
(PID.TID 0000.0001)                -8.140699999999999E+02,      /* K = 54 */
(PID.TID 0000.0001)                -8.614499999999999E+02,      /* K = 55 */
(PID.TID 0000.0001)                -9.094799999999999E+02,      /* K = 56 */
(PID.TID 0000.0001)                -9.580299999999999E+02,      /* K = 57 */
(PID.TID 0000.0001)                -1.006990000000000E+03,      /* K = 58 */
(PID.TID 0000.0001)                -1.056280000000000E+03,      /* K = 59 */
(PID.TID 0000.0001)                -1.105810000000000E+03,      /* K = 60 */
(PID.TID 0000.0001)                -1.155530000000000E+03,      /* K = 61 */
(PID.TID 0000.0001)                -1.205430000000000E+03,      /* K = 62 */
(PID.TID 0000.0001)                -1.255540000000000E+03,      /* K = 63 */
(PID.TID 0000.0001)                -1.305950000000000E+03,      /* K = 64 */
(PID.TID 0000.0001)                -1.356870000000000E+03,      /* K = 65 */
(PID.TID 0000.0001)                -1.408560000000000E+03,      /* K = 66 */
(PID.TID 0000.0001)                -1.461430000000000E+03,      /* K = 67 */
(PID.TID 0000.0001)                -1.515970000000000E+03,      /* K = 68 */
(PID.TID 0000.0001)                -1.572760000000000E+03,      /* K = 69 */
(PID.TID 0000.0001)                -1.632430000000000E+03,      /* K = 70 */
(PID.TID 0000.0001)                -1.695590000000000E+03,      /* K = 71 */
(PID.TID 0000.0001)                -1.762850000000000E+03,      /* K = 72 */
(PID.TID 0000.0001)                -1.834680000000000E+03,      /* K = 73 */
(PID.TID 0000.0001)                -1.911510000000000E+03,      /* K = 74 */
(PID.TID 0000.0001)                -1.993620000000000E+03,      /* K = 75 */
(PID.TID 0000.0001)                -2.081230000000000E+03,      /* K = 76 */
(PID.TID 0000.0001)                -2.174450000000000E+03,      /* K = 77 */
(PID.TID 0000.0001)                -2.273360000000000E+03,      /* K = 78 */
(PID.TID 0000.0001)                -2.378000000000000E+03,      /* K = 79 */
(PID.TID 0000.0001)                -2.488380000000000E+03,      /* K = 80 */
(PID.TID 0000.0001)                -2.604500000000000E+03,      /* K = 81 */
(PID.TID 0000.0001)                -2.726369999999999E+03,      /* K = 82 */
(PID.TID 0000.0001)                -2.854000000000000E+03,      /* K = 83 */
(PID.TID 0000.0001)                -2.987380000000000E+03,      /* K = 84 */
(PID.TID 0000.0001)                -3.126500000000000E+03,      /* K = 85 */
(PID.TID 0000.0001)                -3.271369999999999E+03,      /* K = 86 */
(PID.TID 0000.0001)                -3.422000000000000E+03,      /* K = 87 */
(PID.TID 0000.0001)                -3.578380000000000E+03,      /* K = 88 */
(PID.TID 0000.0001)                -3.740500000000000E+03,      /* K = 89 */
(PID.TID 0000.0001)                -3.908369999999999E+03,      /* K = 90 */
(PID.TID 0000.0001)                -4.082000000000000E+03,      /* K = 91 */
(PID.TID 0000.0001)                -4.261379999999999E+03,      /* K = 92 */
(PID.TID 0000.0001)                -4.446499999999999E+03,      /* K = 93 */
(PID.TID 0000.0001)                -4.637369999999999E+03,      /* K = 94 */
(PID.TID 0000.0001)                -4.833999999999999E+03,      /* K = 95 */
(PID.TID 0000.0001)                -5.036379999999999E+03,      /* K = 96 */
(PID.TID 0000.0001)                -5.244499999999999E+03,      /* K = 97 */
(PID.TID 0000.0001)                -5.458369999999999E+03,      /* K = 98 */
(PID.TID 0000.0001)                -5.677999999999999E+03,      /* K = 99 */
(PID.TID 0000.0001)                -5.903379999999999E+03,      /* K =100 */
(PID.TID 0000.0001)                -6.134499999999999E+03       /* K =101 */
(PID.TID 0000.0001)     ;
(PID.TID 0000.0001) deepFacC = /* deep-model grid factor @ cell-Center (-) */
(PID.TID 0000.0001)   100 @  1.000000000000000E+00              /* K =  1:100 */
(PID.TID 0000.0001)     ;
(PID.TID 0000.0001) deepFacF = /* deep-model grid factor @ W-Interface (-) */
(PID.TID 0000.0001)   101 @  1.000000000000000E+00              /* K =  1:101 */
(PID.TID 0000.0001)     ;
(PID.TID 0000.0001) rVel2wUnit = /* convert units: rVel -> wSpeed (=1 if z-coord)*/
(PID.TID 0000.0001)   101 @  1.000000000000000E+00              /* K =  1:101 */
(PID.TID 0000.0001)     ;
(PID.TID 0000.0001) wUnit2rVel = /* convert units: wSpeed -> rVel (=1 if z-coord)*/
(PID.TID 0000.0001)   101 @  1.000000000000000E+00              /* K =  1:101 */
(PID.TID 0000.0001)     ;
(PID.TID 0000.0001) dBdrRef = /* Vertical grad. of reference buoyancy [(m/s/r)^2] */
(PID.TID 0000.0001)     5 @  0.000000000000000E+00,             /* K =  1:  5 */
(PID.TID 0000.0001)                 9.694282843778342E-06,      /* K =  6 */
(PID.TID 0000.0001)                 2.426513223807763E-05,      /* K =  7 */
(PID.TID 0000.0001)                 1.452975530153167E-05,      /* K =  8 */
(PID.TID 0000.0001)                 9.681498625854328E-06,      /* K =  9 */
(PID.TID 0000.0001)                 4.842099844624020E-05,      /* K = 10 */
(PID.TID 0000.0001)                 6.280856330023614E-05,      /* K = 11 */
(PID.TID 0000.0001)                 8.185617076656702E-05,      /* K = 12 */
(PID.TID 0000.0001)                 1.295252644691406E-04,      /* K = 13 */
(PID.TID 0000.0001)                 1.095351351384002E-04,      /* K = 14 */
(PID.TID 0000.0001)                 1.329169312007239E-04,      /* K = 15 */
(PID.TID 0000.0001)                 1.367041979360881E-04,      /* K = 16 */
(PID.TID 0000.0001)                 1.211727126593573E-04,      /* K = 17 */
(PID.TID 0000.0001)                 1.302265701121417E-04,      /* K = 18 */
(PID.TID 0000.0001)                 1.190854314588815E-04,      /* K = 19 */
(PID.TID 0000.0001)                 1.132023267377615E-04,      /* K = 20 */
(PID.TID 0000.0001)                 1.071632265654582E-04,      /* K = 21 */
(PID.TID 0000.0001)                 1.051393672457803E-04,      /* K = 22 */
(PID.TID 0000.0001)                 1.025752720636568E-04,      /* K = 23 */
(PID.TID 0000.0001)                 9.917395824143918E-05,      /* K = 24 */
(PID.TID 0000.0001)                 9.104030067387556E-05,      /* K = 25 */
(PID.TID 0000.0001)                 8.624441260795840E-05,      /* K = 26 */
(PID.TID 0000.0001)                 8.413036901537412E-05,      /* K = 27 */
(PID.TID 0000.0001)                 6.366728012651445E-05,      /* K = 28 */
(PID.TID 0000.0001)                 5.812092618380799E-05,      /* K = 29 */
(PID.TID 0000.0001)                 5.507951137016039E-05,      /* K = 30 */
(PID.TID 0000.0001)                 4.695510592930360E-05,      /* K = 31 */
(PID.TID 0000.0001)                 4.596409715692217E-05,      /* K = 32 */
(PID.TID 0000.0001)                 4.072795425761271E-05,      /* K = 33 */
(PID.TID 0000.0001)                 3.175298295526856E-05,      /* K = 34 */
(PID.TID 0000.0001)                 3.093452381022950E-05,      /* K = 35 */
(PID.TID 0000.0001)                 2.864003459600112E-05,      /* K = 36 */
(PID.TID 0000.0001)                 2.767315329576147E-05,      /* K = 37 */
(PID.TID 0000.0001)                 2.463000191580109E-05,      /* K = 38 */
(PID.TID 0000.0001)                 2.475053767167416E-05,      /* K = 39 */
(PID.TID 0000.0001)                 1.906506350221241E-05,      /* K = 40 */
(PID.TID 0000.0001)                 1.865582618722828E-05,      /* K = 41 */
(PID.TID 0000.0001)                 1.823366094760355E-05,      /* K = 42 */
(PID.TID 0000.0001)                 1.471037885515795E-05,      /* K = 43 */
(PID.TID 0000.0001)                 1.630603945735049E-05,      /* K = 44 */
(PID.TID 0000.0001)                 1.384745352787863E-05,      /* K = 45 */
(PID.TID 0000.0001)                 1.226594411185851E-05,      /* K = 46 */
(PID.TID 0000.0001)                 1.225310460290910E-05,      /* K = 47 */
(PID.TID 0000.0001)                 1.223011113144029E-05,      /* K = 48 */
(PID.TID 0000.0001)                 1.061638239990844E-05,      /* K = 49 */
(PID.TID 0000.0001)                 1.070650633014499E-05,      /* K = 50 */
(PID.TID 0000.0001)                 9.357472423340062E-06,      /* K = 51 */
(PID.TID 0000.0001)                 9.812756875994976E-06,      /* K = 52 */
(PID.TID 0000.0001)                 9.364680965538371E-06,      /* K = 53 */
(PID.TID 0000.0001)                 6.430982300518885E-06,      /* K = 54 */
(PID.TID 0000.0001)                 8.970058816087760E-06,      /* K = 55 */
(PID.TID 0000.0001)                 8.398462027768182E-06,      /* K = 56 */
(PID.TID 0000.0001)                 7.294531901104187E-06,      /* K = 57 */
(PID.TID 0000.0001)                 8.642565592484861E-06,      /* K = 58 */
(PID.TID 0000.0001)                 6.405731826441176E-06,      /* K = 59 */
(PID.TID 0000.0001)                 8.743452988220992E-06,      /* K = 60 */
(PID.TID 0000.0001)                 6.590306221026928E-06,      /* K = 61 */
(PID.TID 0000.0001)                 7.462277694900194E-06,      /* K = 62 */
(PID.TID 0000.0001)                 5.625478499738029E-06,      /* K = 63 */
(PID.TID 0000.0001)                 6.494457456351866E-06,      /* K = 64 */
(PID.TID 0000.0001)                 5.872364624284492E-06,      /* K = 65 */
(PID.TID 0000.0001)                 5.495436518643386E-06,      /* K = 66 */
(PID.TID 0000.0001)                 5.094601592541214E-06,      /* K = 67 */
(PID.TID 0000.0001)                 4.437172619322077E-06,      /* K = 68 */
(PID.TID 0000.0001)                 4.016940542409763E-06,      /* K = 69 */
(PID.TID 0000.0001)                 4.028908121728164E-06,      /* K = 70 */
(PID.TID 0000.0001)                 2.246388502686123E-06,      /* K = 71 */
(PID.TID 0000.0001)                 2.998142894531076E-06,      /* K = 72 */
(PID.TID 0000.0001)                 2.815413573924730E-06,      /* K = 73 */
(PID.TID 0000.0001)                 2.814329879263964E-06,      /* K = 74 */
(PID.TID 0000.0001)                 2.327158902006369E-06,      /* K = 75 */
(PID.TID 0000.0001)                 1.523559191918705E-06,      /* K = 76 */
(PID.TID 0000.0001)                 2.223754279938488E-06,      /* K = 77 */
(PID.TID 0000.0001)                 1.243572598777220E-06,      /* K = 78 */
(PID.TID 0000.0001)                 1.884009398486976E-06,      /* K = 79 */
(PID.TID 0000.0001)                 1.146309977456730E-06,      /* K = 80 */
(PID.TID 0000.0001)                 9.836409573498765E-07,      /* K = 81 */
(PID.TID 0000.0001)                 1.666564082034753E-06,      /* K = 82 */
(PID.TID 0000.0001)                 8.096789666921265E-07,      /* K = 83 */
(PID.TID 0000.0001)                 9.015806361848934E-07,      /* K = 84 */
(PID.TID 0000.0001)                 9.899996711216439E-07,      /* K = 85 */
(PID.TID 0000.0001)                 1.360959195968683E-06,      /* K = 86 */
(PID.TID 0000.0001)                 3.633635105266278E-07,      /* K = 87 */
(PID.TID 0000.0001)                 7.257552276248978E-07,      /* K = 88 */
(PID.TID 0000.0001)                 8.165089567519712E-07,      /* K = 89 */
(PID.TID 0000.0001)                 7.043987264958734E-07,      /* K = 90 */
(PID.TID 0000.0001)                 6.956983617110328E-07,      /* K = 91 */
(PID.TID 0000.0001)                 6.880703959048398E-07,      /* K = 92 */
(PID.TID 0000.0001)                 6.813676413074075E-07,      /* K = 93 */
(PID.TID 0000.0001)                 6.754628223828996E-07,      /* K = 94 */
(PID.TID 0000.0001)                 3.049729588883796E-07,      /* K = 95 */
(PID.TID 0000.0001)                 6.657955553385863E-07,      /* K = 96 */
(PID.TID 0000.0001)                 5.675084375793845E-07,      /* K = 97 */
(PID.TID 0000.0001)                 3.767262833194376E-07,      /* K = 98 */
(PID.TID 0000.0001)                 2.816808424830599E-07,      /* K = 99 */
(PID.TID 0000.0001)                 1.873891169846885E-07       /* K =100 */
(PID.TID 0000.0001)     ;
(PID.TID 0000.0001) rotateGrid = /* use rotated grid ( True/False ) */
(PID.TID 0000.0001)                   F
(PID.TID 0000.0001)     ;
(PID.TID 0000.0001) phiEuler = /* Euler angle, rotation about original z-coordinate [rad] */
(PID.TID 0000.0001)                 0.000000000000000E+00
(PID.TID 0000.0001)     ;
(PID.TID 0000.0001) thetaEuler = /* Euler angle, rotation about new x-coordinate [rad] */
(PID.TID 0000.0001)                 0.000000000000000E+00
(PID.TID 0000.0001)     ;
(PID.TID 0000.0001) psiEuler = /* Euler angle, rotation about new z-coordinate [rad] */
(PID.TID 0000.0001)                 0.000000000000000E+00
(PID.TID 0000.0001)     ;
(PID.TID 0000.0001) dxF =  /* dxF(:,1,:,1) ( units: m ) */
(PID.TID 0000.0001)   330 @  4.132168078704865E+03              /* I =  1:330 */
(PID.TID 0000.0001)     ;
(PID.TID 0000.0001) dxF =  /* dxF(1,:,1,:) ( units: m ) */
(PID.TID 0000.0001)                 4.132168078704865E+03,      /* J =  1 */
(PID.TID 0000.0001)                 4.130918776160077E+03,      /* J =  2 */
(PID.TID 0000.0001)                 4.129668354115694E+03,      /* J =  3 */
(PID.TID 0000.0001)                 4.128416849220377E+03,      /* J =  4 */
(PID.TID 0000.0001)                 4.127164263270209E+03,      /* J =  5 */
(PID.TID 0000.0001)                 4.125910563003906E+03,      /* J =  6 */
(PID.TID 0000.0001)                 4.124655785191007E+03,      /* J =  7 */
(PID.TID 0000.0001)                 4.123399931625523E+03,      /* J =  8 */
(PID.TID 0000.0001)                 4.122142968921520E+03,      /* J =  9 */
(PID.TID 0000.0001)                 4.120884933969184E+03,      /* J = 10 */
(PID.TID 0000.0001)                 4.119625828560444E+03,      /* J = 11 */
(PID.TID 0000.0001)                 4.118365654486509E+03,      /* J = 12 */
(PID.TID 0000.0001)                 4.117104378195548E+03,      /* J = 13 */
(PID.TID 0000.0001)                 4.115842036738223E+03,      /* J = 14 */
(PID.TID 0000.0001)                 4.114578631903650E+03,      /* J = 15 */
(PID.TID 0000.0001)                 4.113314130015837E+03,      /* J = 16 */
(PID.TID 0000.0001)                 4.112048568245555E+03,      /* J = 17 */
(PID.TID 0000.0001)                 4.110781948379812E+03,      /* J = 18 */
(PID.TID 0000.0001)                 4.109514272204890E+03,      /* J = 19 */
(PID.TID 0000.0001)                 4.108245541506343E+03,      /* J = 20 */
(PID.TID 0000.0001)                 4.106975758068988E+03,      /* J = 21 */
(PID.TID 0000.0001)                 4.105704887969090E+03,      /* J = 22 */
(PID.TID 0000.0001)                 4.104432968616856E+03,      /* J = 23 */
(PID.TID 0000.0001)                 4.103160001794981E+03,      /* J = 24 */
(PID.TID 0000.0001)                 4.101885953456212E+03,      /* J = 25 */
(PID.TID 0000.0001)                 4.100610861130162E+03,      /* J = 26 */
(PID.TID 0000.0001)                 4.099334762507415E+03,      /* J = 27 */
(PID.TID 0000.0001)                 4.098057587588119E+03       /* J = 28 */
(PID.TID 0000.0001)     ;
(PID.TID 0000.0001) dyF =  /* dyF(:,1,:,1) ( units: m ) */
(PID.TID 0000.0001)   330 @  3.798951025203276E+03              /* I =  1:330 */
(PID.TID 0000.0001)     ;
(PID.TID 0000.0001) dyF =  /* dyF(1,:,1,:) ( units: m ) */
(PID.TID 0000.0001)                 3.798951025203276E+03,      /* J =  1 */
(PID.TID 0000.0001)                 3.797890754194288E+03,      /* J =  2 */
(PID.TID 0000.0001)                 3.796830483185300E+03,      /* J =  3 */
(PID.TID 0000.0001)                 3.795558157974515E+03,      /* J =  4 */
(PID.TID 0000.0001)                 3.794497886965527E+03,      /* J =  5 */
(PID.TID 0000.0001)                 3.793437615956539E+03,      /* J =  6 */
(PID.TID 0000.0001)                 3.792165290745754E+03,      /* J =  7 */
(PID.TID 0000.0001)                 3.791105019736766E+03,      /* J =  8 */
(PID.TID 0000.0001)                 3.790044748727778E+03,      /* J =  9 */
(PID.TID 0000.0001)                 3.788772423516993E+03,      /* J = 10 */
(PID.TID 0000.0001)                 3.787712152508005E+03,      /* J = 11 */
(PID.TID 0000.0001)                 3.786439827297219E+03,      /* J = 12 */
(PID.TID 0000.0001)                 3.785591610490029E+03,      /* J = 13 */
(PID.TID 0000.0001)                 3.784107231077447E+03,      /* J = 14 */
(PID.TID 0000.0001)                 3.783259014270256E+03,      /* J = 15 */
(PID.TID 0000.0001)                 3.781986689059471E+03,      /* J = 16 */
(PID.TID 0000.0001)                 3.780926418050483E+03,      /* J = 17 */
(PID.TID 0000.0001)                 3.779654092839698E+03,      /* J = 18 */
(PID.TID 0000.0001)                 3.778593821830710E+03,      /* J = 19 */
(PID.TID 0000.0001)                 3.777321496619924E+03,      /* J = 20 */
(PID.TID 0000.0001)                 3.776261225610937E+03,      /* J = 21 */
(PID.TID 0000.0001)                 3.775200954601949E+03,      /* J = 22 */
(PID.TID 0000.0001)                 3.773928629391164E+03,      /* J = 23 */
(PID.TID 0000.0001)                 3.772868358382176E+03,      /* J = 24 */
(PID.TID 0000.0001)                 3.771808087373188E+03,      /* J = 25 */
(PID.TID 0000.0001)                 3.770535762162403E+03,      /* J = 26 */
(PID.TID 0000.0001)                 3.769263436951617E+03,      /* J = 27 */
(PID.TID 0000.0001)                 3.768415220144427E+03       /* J = 28 */
(PID.TID 0000.0001)     ;
(PID.TID 0000.0001) dxG =  /* dxG(:,1,:,1) ( units: m ) */
(PID.TID 0000.0001)   330 @  4.132792266102490E+03              /* I =  1:330 */
(PID.TID 0000.0001)     ;
(PID.TID 0000.0001) dxG =  /* dxG(1,:,1,:) ( units: m ) */
(PID.TID 0000.0001)                 4.132792266102490E+03,      /* J =  1 */
(PID.TID 0000.0001)                 4.131543523884096E+03,      /* J =  2 */
(PID.TID 0000.0001)                 4.130293661329000E+03,      /* J =  3 */
(PID.TID 0000.0001)                 4.129042680111336E+03,      /* J =  4 */
(PID.TID 0000.0001)                 4.127790651895232E+03,      /* J =  5 */
(PID.TID 0000.0001)                 4.126537508526810E+03,      /* J =  6 */
(PID.TID 0000.0001)                 4.125283251678356E+03,      /* J =  7 */
(PID.TID 0000.0001)                 4.124027953257525E+03,      /* J =  8 */
(PID.TID 0000.0001)                 4.122771544862921E+03,      /* J =  9 */
(PID.TID 0000.0001)                 4.121514028164970E+03,      /* J = 10 */
(PID.TID 0000.0001)                 4.120255475314408E+03,      /* J = 11 */
(PID.TID 0000.0001)                 4.118995817662741E+03,      /* J = 12 */
(PID.TID 0000.0001)                 4.117735127522450E+03,      /* J = 13 */
(PID.TID 0000.0001)                 4.116473265355150E+03,      /* J = 14 */
(PID.TID 0000.0001)                 4.115210445004191E+03,      /* J = 15 */
(PID.TID 0000.0001)                 4.113946455960185E+03,      /* J = 16 */
(PID.TID 0000.0001)                 4.112681441584010E+03,      /* J = 17 */
(PID.TID 0000.0001)                 4.111415332734301E+03,      /* J = 18 */
(PID.TID 0000.0001)                 4.110148202207719E+03,      /* J = 19 */
(PID.TID 0000.0001)                 4.108879980698939E+03,      /* J = 20 */
(PID.TID 0000.0001)                 4.107610741165563E+03,      /* J = 21 */
(PID.TID 0000.0001)                 4.106340414138508E+03,      /* J = 22 */
(PID.TID 0000.0001)                 4.105069001279958E+03,      /* J = 23 */
(PID.TID 0000.0001)                 4.103796575788615E+03,      /* J = 24 */
(PID.TID 0000.0001)                 4.102523067950195E+03,      /* J = 25 */
(PID.TID 0000.0001)                 4.101248479424976E+03,      /* J = 26 */
(PID.TID 0000.0001)                 4.099972883652305E+03,      /* J = 27 */
(PID.TID 0000.0001)                 4.098696282533544E+03       /* J = 28 */
(PID.TID 0000.0001)     ;
(PID.TID 0000.0001) dyG =  /* dyG(:,1,:,1) ( units: m ) */
(PID.TID 0000.0001)   330 @  3.798951025203276E+03              /* I =  1:330 */
(PID.TID 0000.0001)     ;
(PID.TID 0000.0001) dyG =  /* dyG(1,:,1,:) ( units: m ) */
(PID.TID 0000.0001)                 3.798951025203276E+03,      /* J =  1 */
(PID.TID 0000.0001)                 3.797890754194288E+03,      /* J =  2 */
(PID.TID 0000.0001)                 3.796830483185300E+03,      /* J =  3 */
(PID.TID 0000.0001)                 3.795558157974515E+03,      /* J =  4 */
(PID.TID 0000.0001)                 3.794497886965527E+03,      /* J =  5 */
(PID.TID 0000.0001)                 3.793437615956539E+03,      /* J =  6 */
(PID.TID 0000.0001)                 3.792165290745754E+03,      /* J =  7 */
(PID.TID 0000.0001)                 3.791105019736766E+03,      /* J =  8 */
(PID.TID 0000.0001)                 3.790044748727778E+03,      /* J =  9 */
(PID.TID 0000.0001)                 3.788772423516993E+03,      /* J = 10 */
(PID.TID 0000.0001)                 3.787712152508005E+03,      /* J = 11 */
(PID.TID 0000.0001)                 3.786439827297219E+03,      /* J = 12 */
(PID.TID 0000.0001)                 3.785591610490029E+03,      /* J = 13 */
(PID.TID 0000.0001)                 3.784107231077447E+03,      /* J = 14 */
(PID.TID 0000.0001)                 3.783259014270256E+03,      /* J = 15 */
(PID.TID 0000.0001)                 3.781986689059471E+03,      /* J = 16 */
(PID.TID 0000.0001)                 3.780926418050483E+03,      /* J = 17 */
(PID.TID 0000.0001)                 3.779654092839698E+03,      /* J = 18 */
(PID.TID 0000.0001)                 3.778593821830710E+03,      /* J = 19 */
(PID.TID 0000.0001)                 3.777321496619924E+03,      /* J = 20 */
(PID.TID 0000.0001)                 3.776261225610937E+03,      /* J = 21 */
(PID.TID 0000.0001)                 3.775200954601949E+03,      /* J = 22 */
(PID.TID 0000.0001)                 3.773928629391164E+03,      /* J = 23 */
(PID.TID 0000.0001)                 3.772868358382176E+03,      /* J = 24 */
(PID.TID 0000.0001)                 3.771808087373188E+03,      /* J = 25 */
(PID.TID 0000.0001)                 3.770535762162403E+03,      /* J = 26 */
(PID.TID 0000.0001)                 3.769263436951617E+03,      /* J = 27 */
(PID.TID 0000.0001)                 3.768415220144427E+03       /* J = 28 */
(PID.TID 0000.0001)     ;
(PID.TID 0000.0001) dxC =  /* dxC(:,1,:,1) ( units: m ) */
(PID.TID 0000.0001)   330 @  4.132168078704865E+03              /* I =  1:330 */
(PID.TID 0000.0001)     ;
(PID.TID 0000.0001) dxC =  /* dxC(1,:,1,:) ( units: m ) */
(PID.TID 0000.0001)                 4.132168078704865E+03,      /* J =  1 */
(PID.TID 0000.0001)                 4.130918776160077E+03,      /* J =  2 */
(PID.TID 0000.0001)                 4.129668354115694E+03,      /* J =  3 */
(PID.TID 0000.0001)                 4.128416849220377E+03,      /* J =  4 */
(PID.TID 0000.0001)                 4.127164263270209E+03,      /* J =  5 */
(PID.TID 0000.0001)                 4.125910563003906E+03,      /* J =  6 */
(PID.TID 0000.0001)                 4.124655785191007E+03,      /* J =  7 */
(PID.TID 0000.0001)                 4.123399931625523E+03,      /* J =  8 */
(PID.TID 0000.0001)                 4.122142968921520E+03,      /* J =  9 */
(PID.TID 0000.0001)                 4.120884933969184E+03,      /* J = 10 */
(PID.TID 0000.0001)                 4.119625828560444E+03,      /* J = 11 */
(PID.TID 0000.0001)                 4.118365654486509E+03,      /* J = 12 */
(PID.TID 0000.0001)                 4.117104378195548E+03,      /* J = 13 */
(PID.TID 0000.0001)                 4.115842036738223E+03,      /* J = 14 */
(PID.TID 0000.0001)                 4.114578631903650E+03,      /* J = 15 */
(PID.TID 0000.0001)                 4.113314130015837E+03,      /* J = 16 */
(PID.TID 0000.0001)                 4.112048568245555E+03,      /* J = 17 */
(PID.TID 0000.0001)                 4.110781948379812E+03,      /* J = 18 */
(PID.TID 0000.0001)                 4.109514272204890E+03,      /* J = 19 */
(PID.TID 0000.0001)                 4.108245541506343E+03,      /* J = 20 */
(PID.TID 0000.0001)                 4.106975758068988E+03,      /* J = 21 */
(PID.TID 0000.0001)                 4.105704887969090E+03,      /* J = 22 */
(PID.TID 0000.0001)                 4.104432968616856E+03,      /* J = 23 */
(PID.TID 0000.0001)                 4.103160001794981E+03,      /* J = 24 */
(PID.TID 0000.0001)                 4.101885953456212E+03,      /* J = 25 */
(PID.TID 0000.0001)                 4.100610861130162E+03,      /* J = 26 */
(PID.TID 0000.0001)                 4.099334762507415E+03,      /* J = 27 */
(PID.TID 0000.0001)                 4.098057587588119E+03       /* J = 28 */
(PID.TID 0000.0001)     ;
(PID.TID 0000.0001) dyC =  /* dyC(:,1,:,1) ( units: m ) */
(PID.TID 0000.0001)   330 @  3.463587305060435E+03              /* I =  1:330 */
(PID.TID 0000.0001)     ;
(PID.TID 0000.0001) dyC =  /* dyC(1,:,1,:) ( units: m ) */
(PID.TID 0000.0001)                 3.463587305060435E+03,      /* J =  1 */
(PID.TID 0000.0001)                 3.798420889698782E+03,      /* J =  2 */
(PID.TID 0000.0001)                 3.797360618689794E+03,      /* J =  3 */
(PID.TID 0000.0001)                 3.796194320579908E+03,      /* J =  4 */
(PID.TID 0000.0001)                 3.795028022470021E+03,      /* J =  5 */
(PID.TID 0000.0001)                 3.793967751461033E+03,      /* J =  6 */
(PID.TID 0000.0001)                 3.792801453351146E+03,      /* J =  7 */
(PID.TID 0000.0001)                 3.791635155241260E+03,      /* J =  8 */
(PID.TID 0000.0001)                 3.790574884232272E+03,      /* J =  9 */
(PID.TID 0000.0001)                 3.789408586122385E+03,      /* J = 10 */
(PID.TID 0000.0001)                 3.788242288012499E+03,      /* J = 11 */
(PID.TID 0000.0001)                 3.787075989902612E+03,      /* J = 12 */
(PID.TID 0000.0001)                 3.786015718893625E+03,      /* J = 13 */
(PID.TID 0000.0001)                 3.784849420783738E+03,      /* J = 14 */
(PID.TID 0000.0001)                 3.783683122673851E+03,      /* J = 15 */
(PID.TID 0000.0001)                 3.782622851664863E+03,      /* J = 16 */
(PID.TID 0000.0001)                 3.781456553554977E+03,      /* J = 17 */
(PID.TID 0000.0001)                 3.780290255445090E+03,      /* J = 18 */
(PID.TID 0000.0001)                 3.779123957335204E+03,      /* J = 19 */
(PID.TID 0000.0001)                 3.777957659225317E+03,      /* J = 20 */
(PID.TID 0000.0001)                 3.776791361115431E+03,      /* J = 21 */
(PID.TID 0000.0001)                 3.775731090106443E+03,      /* J = 22 */
(PID.TID 0000.0001)                 3.774564791996556E+03,      /* J = 23 */
(PID.TID 0000.0001)                 3.773398493886670E+03,      /* J = 24 */
(PID.TID 0000.0001)                 3.772338222877682E+03,      /* J = 25 */
(PID.TID 0000.0001)                 3.771171924767795E+03,      /* J = 26 */
(PID.TID 0000.0001)                 3.769899599557010E+03,      /* J = 27 */
(PID.TID 0000.0001)                 3.768839328548022E+03       /* J = 28 */
(PID.TID 0000.0001)     ;
(PID.TID 0000.0001) dxV =  /* dxV(:,1,:,1) ( units: m ) */
(PID.TID 0000.0001)   330 @  4.132792266102490E+03              /* I =  1:330 */
(PID.TID 0000.0001)     ;
(PID.TID 0000.0001) dxV =  /* dxV(1,:,1,:) ( units: m ) */
(PID.TID 0000.0001)                 4.132792266102490E+03,      /* J =  1 */
(PID.TID 0000.0001)                 4.131543523884096E+03,      /* J =  2 */
(PID.TID 0000.0001)                 4.130293661329000E+03,      /* J =  3 */
(PID.TID 0000.0001)                 4.129042680111336E+03,      /* J =  4 */
(PID.TID 0000.0001)                 4.127790651895232E+03,      /* J =  5 */
(PID.TID 0000.0001)                 4.126537508526810E+03,      /* J =  6 */
(PID.TID 0000.0001)                 4.125283251678356E+03,      /* J =  7 */
(PID.TID 0000.0001)                 4.124027953257525E+03,      /* J =  8 */
(PID.TID 0000.0001)                 4.122771544862921E+03,      /* J =  9 */
(PID.TID 0000.0001)                 4.121514028164970E+03,      /* J = 10 */
(PID.TID 0000.0001)                 4.120255475314408E+03,      /* J = 11 */
(PID.TID 0000.0001)                 4.118995817662741E+03,      /* J = 12 */
(PID.TID 0000.0001)                 4.117735127522450E+03,      /* J = 13 */
(PID.TID 0000.0001)                 4.116473265355150E+03,      /* J = 14 */
(PID.TID 0000.0001)                 4.115210445004191E+03,      /* J = 15 */
(PID.TID 0000.0001)                 4.113946455960185E+03,      /* J = 16 */
(PID.TID 0000.0001)                 4.112681441584010E+03,      /* J = 17 */
(PID.TID 0000.0001)                 4.111415332734301E+03,      /* J = 18 */
(PID.TID 0000.0001)                 4.110148202207719E+03,      /* J = 19 */
(PID.TID 0000.0001)                 4.108879980698939E+03,      /* J = 20 */
(PID.TID 0000.0001)                 4.107610741165563E+03,      /* J = 21 */
(PID.TID 0000.0001)                 4.106340414138508E+03,      /* J = 22 */
(PID.TID 0000.0001)                 4.105069001279958E+03,      /* J = 23 */
(PID.TID 0000.0001)                 4.103796575788615E+03,      /* J = 24 */
(PID.TID 0000.0001)                 4.102523067950195E+03,      /* J = 25 */
(PID.TID 0000.0001)                 4.101248479424976E+03,      /* J = 26 */
(PID.TID 0000.0001)                 4.099972883652305E+03,      /* J = 27 */
(PID.TID 0000.0001)                 4.098696282533544E+03       /* J = 28 */
(PID.TID 0000.0001)     ;
(PID.TID 0000.0001) dyU =  /* dyU(:,1,:,1) ( units: m ) */
(PID.TID 0000.0001)   330 @  3.463587305060435E+03              /* I =  1:330 */
(PID.TID 0000.0001)     ;
(PID.TID 0000.0001) dyU =  /* dyU(1,:,1,:) ( units: m ) */
(PID.TID 0000.0001)                 3.463587305060435E+03,      /* J =  1 */
(PID.TID 0000.0001)                 3.798420889698782E+03,      /* J =  2 */
(PID.TID 0000.0001)                 3.797360618689794E+03,      /* J =  3 */
(PID.TID 0000.0001)                 3.796194320579908E+03,      /* J =  4 */
(PID.TID 0000.0001)                 3.795028022470021E+03,      /* J =  5 */
(PID.TID 0000.0001)                 3.793967751461033E+03,      /* J =  6 */
(PID.TID 0000.0001)                 3.792801453351146E+03,      /* J =  7 */
(PID.TID 0000.0001)                 3.791635155241260E+03,      /* J =  8 */
(PID.TID 0000.0001)                 3.790574884232272E+03,      /* J =  9 */
(PID.TID 0000.0001)                 3.789408586122385E+03,      /* J = 10 */
(PID.TID 0000.0001)                 3.788242288012499E+03,      /* J = 11 */
(PID.TID 0000.0001)                 3.787075989902612E+03,      /* J = 12 */
(PID.TID 0000.0001)                 3.786015718893625E+03,      /* J = 13 */
(PID.TID 0000.0001)                 3.784849420783738E+03,      /* J = 14 */
(PID.TID 0000.0001)                 3.783683122673851E+03,      /* J = 15 */
(PID.TID 0000.0001)                 3.782622851664863E+03,      /* J = 16 */
(PID.TID 0000.0001)                 3.781456553554977E+03,      /* J = 17 */
(PID.TID 0000.0001)                 3.780290255445090E+03,      /* J = 18 */
(PID.TID 0000.0001)                 3.779123957335204E+03,      /* J = 19 */
(PID.TID 0000.0001)                 3.777957659225317E+03,      /* J = 20 */
(PID.TID 0000.0001)                 3.776791361115431E+03,      /* J = 21 */
(PID.TID 0000.0001)                 3.775731090106443E+03,      /* J = 22 */
(PID.TID 0000.0001)                 3.774564791996556E+03,      /* J = 23 */
(PID.TID 0000.0001)                 3.773398493886670E+03,      /* J = 24 */
(PID.TID 0000.0001)                 3.772338222877682E+03,      /* J = 25 */
(PID.TID 0000.0001)                 3.771171924767795E+03,      /* J = 26 */
(PID.TID 0000.0001)                 3.769899599557010E+03,      /* J = 27 */
(PID.TID 0000.0001)                 3.768839328548022E+03       /* J = 28 */
(PID.TID 0000.0001)     ;
(PID.TID 0000.0001) rA  =  /* rA (:,1,:,1) ( units: m^2 ) */
(PID.TID 0000.0001)   330 @  1.569790392627073E+07              /* I =  1:330 */
(PID.TID 0000.0001)     ;
(PID.TID 0000.0001) rA  =  /* rA (1,:,1,:) ( units: m^2 ) */
(PID.TID 0000.0001)                 1.569790392627073E+07,      /* J =  1 */
(PID.TID 0000.0001)                 1.568877799393386E+07,      /* J =  2 */
(PID.TID 0000.0001)                 1.567965046024477E+07,      /* J =  3 */
(PID.TID 0000.0001)                 1.566964601977351E+07,      /* J =  4 */
(PID.TID 0000.0001)                 1.566051584459966E+07,      /* J =  5 */
(PID.TID 0000.0001)                 1.565138409849535E+07,      /* J =  6 */
(PID.TID 0000.0001)                 1.564137627390480E+07,      /* J =  7 */
(PID.TID 0000.0001)                 1.563224194845815E+07,      /* J =  8 */
(PID.TID 0000.0001)                 1.562310608242249E+07,      /* J =  9 */
(PID.TID 0000.0001)                 1.561309496816712E+07,      /* J = 10 */
(PID.TID 0000.0001)                 1.560395658474481E+07,      /* J = 11 */
(PID.TID 0000.0001)                 1.559394350794555E+07,      /* J = 12 */
(PID.TID 0000.0001)                 1.558567556425542E+07,      /* J = 13 */
(PID.TID 0000.0001)                 1.557478738418195E+07,      /* J = 14 */
(PID.TID 0000.0001)                 1.556651647028628E+07,      /* J = 15 */
(PID.TID 0000.0001)                 1.555649905915226E+07,      /* J = 16 */
(PID.TID 0000.0001)                 1.554735283576100E+07,      /* J = 17 */
(PID.TID 0000.0001)                 1.553733358804201E+07,      /* J = 18 */
(PID.TID 0000.0001)                 1.552818501201680E+07,      /* J = 19 */
(PID.TID 0000.0001)                 1.551816396996124E+07,      /* J = 20 */
(PID.TID 0000.0001)                 1.550901308262007E+07,      /* J = 21 */
(PID.TID 0000.0001)                 1.549986078553674E+07,      /* J = 22 */
(PID.TID 0000.0001)                 1.548983686113863E+07,      /* J = 23 */
(PID.TID 0000.0001)                 1.548068231387437E+07,      /* J = 24 */
(PID.TID 0000.0001)                 1.547152638671146E+07,      /* J = 25 */
(PID.TID 0000.0001)                 1.546149967288220E+07,      /* J = 26 */
(PID.TID 0000.0001)                 1.545147241072469E+07,      /* J = 27 */
(PID.TID 0000.0001)                 1.544318236089779E+07       /* J = 28 */
(PID.TID 0000.0001)     ;
(PID.TID 0000.0001) rAw =  /* rAw(:,1,:,1) ( units: m^2 ) */
(PID.TID 0000.0001)   330 @  1.569790392627073E+07              /* I =  1:330 */
(PID.TID 0000.0001)     ;
(PID.TID 0000.0001) rAw =  /* rAw(1,:,1,:) ( units: m^2 ) */
(PID.TID 0000.0001)                 1.569790392627073E+07,      /* J =  1 */
(PID.TID 0000.0001)                 1.568877799393386E+07,      /* J =  2 */
(PID.TID 0000.0001)                 1.567965046024477E+07,      /* J =  3 */
(PID.TID 0000.0001)                 1.566964601977351E+07,      /* J =  4 */
(PID.TID 0000.0001)                 1.566051584459966E+07,      /* J =  5 */
(PID.TID 0000.0001)                 1.565138409849535E+07,      /* J =  6 */
(PID.TID 0000.0001)                 1.564137627390480E+07,      /* J =  7 */
(PID.TID 0000.0001)                 1.563224194845815E+07,      /* J =  8 */
(PID.TID 0000.0001)                 1.562310608242249E+07,      /* J =  9 */
(PID.TID 0000.0001)                 1.561309496816712E+07,      /* J = 10 */
(PID.TID 0000.0001)                 1.560395658474481E+07,      /* J = 11 */
(PID.TID 0000.0001)                 1.559394350794555E+07,      /* J = 12 */
(PID.TID 0000.0001)                 1.558567556425542E+07,      /* J = 13 */
(PID.TID 0000.0001)                 1.557478738418195E+07,      /* J = 14 */
(PID.TID 0000.0001)                 1.556651647028628E+07,      /* J = 15 */
(PID.TID 0000.0001)                 1.555649905915226E+07,      /* J = 16 */
(PID.TID 0000.0001)                 1.554735283576100E+07,      /* J = 17 */
(PID.TID 0000.0001)                 1.553733358804201E+07,      /* J = 18 */
(PID.TID 0000.0001)                 1.552818501201680E+07,      /* J = 19 */
(PID.TID 0000.0001)                 1.551816396996124E+07,      /* J = 20 */
(PID.TID 0000.0001)                 1.550901308262007E+07,      /* J = 21 */
(PID.TID 0000.0001)                 1.549986078553674E+07,      /* J = 22 */
(PID.TID 0000.0001)                 1.548983686113863E+07,      /* J = 23 */
(PID.TID 0000.0001)                 1.548068231387437E+07,      /* J = 24 */
(PID.TID 0000.0001)                 1.547152638671146E+07,      /* J = 25 */
(PID.TID 0000.0001)                 1.546149967288220E+07,      /* J = 26 */
(PID.TID 0000.0001)                 1.545147241072469E+07,      /* J = 27 */
(PID.TID 0000.0001)                 1.544318236089779E+07       /* J = 28 */
(PID.TID 0000.0001)     ;
(PID.TID 0000.0001) rAs =  /* rAs(:,1,:,1) ( units: m^2 ) */
(PID.TID 0000.0001)   330 @  1.431409585161713E+07              /* I =  1:330 */
(PID.TID 0000.0001)     ;
(PID.TID 0000.0001) rAs =  /* rAs(1,:,1,:) ( units: m^2 ) */
(PID.TID 0000.0001)                 1.431409585161713E+07,      /* J =  1 */
(PID.TID 0000.0001)                 1.569334132646529E+07,      /* J =  2 */
(PID.TID 0000.0001)                 1.568421459236220E+07,      /* J =  3 */
(PID.TID 0000.0001)                 1.567464853779548E+07,      /* J =  4 */
(PID.TID 0000.0001)                 1.566508129518095E+07,      /* J =  5 */
(PID.TID 0000.0001)                 1.565595033345175E+07,      /* J =  6 */
(PID.TID 0000.0001)                 1.564638048044906E+07,      /* J =  7 */
(PID.TID 0000.0001)                 1.563680947081621E+07,      /* J =  8 */
(PID.TID 0000.0001)                 1.562767437398903E+07,      /* J =  9 */
(PID.TID 0000.0001)                 1.561810081601708E+07,      /* J = 10 */
(PID.TID 0000.0001)                 1.560852613273763E+07,      /* J = 11 */
(PID.TID 0000.0001)                 1.559895033469148E+07,      /* J = 12 */
(PID.TID 0000.0001)                 1.558980995703406E+07,      /* J = 13 */
(PID.TID 0000.0001)                 1.558023169331755E+07,      /* J = 14 */
(PID.TID 0000.0001)                 1.557065234602267E+07,      /* J = 15 */
(PID.TID 0000.0001)                 1.556150804841762E+07,      /* J = 16 */
(PID.TID 0000.0001)                 1.555192629706736E+07,      /* J = 17 */
(PID.TID 0000.0001)                 1.554234349323534E+07,      /* J = 18 */
(PID.TID 0000.0001)                 1.553275964738865E+07,      /* J = 19 */
(PID.TID 0000.0001)                 1.552317476996653E+07,      /* J = 20 */
(PID.TID 0000.0001)                 1.551358887140660E+07,      /* J = 21 */
(PID.TID 0000.0001)                 1.550443727811980E+07,      /* J = 22 */
(PID.TID 0000.0001)                 1.549484909883272E+07,      /* J = 23 */
(PID.TID 0000.0001)                 1.548525992931114E+07,      /* J = 24 */
(PID.TID 0000.0001)                 1.547610469102710E+07,      /* J = 25 */
(PID.TID 0000.0001)                 1.546651330181840E+07,      /* J = 26 */
(PID.TID 0000.0001)                 1.545648631260958E+07,      /* J = 27 */
(PID.TID 0000.0001)                 1.544732779090657E+07       /* J = 28 */
(PID.TID 0000.0001)     ;
(PID.TID 0000.0001) globalArea = /* Integrated horizontal Area (m^2) */
(PID.TID 0000.0001)                 1.130146430983160E+13
(PID.TID 0000.0001)     ;
(PID.TID 0000.0001) // =======================================================
(PID.TID 0000.0001) // End of Model config. summary
(PID.TID 0000.0001) // =======================================================
(PID.TID 0000.0001) 
(PID.TID 0000.0001) == Packages configuration : Check & print summary ==
(PID.TID 0000.0001) 
(PID.TID 0000.0001) OBCS_CHECK: #define ALLOW_OBCS
(PID.TID 0000.0001) OBCS_CHECK: start summary:
(PID.TID 0000.0001) useOBCSprescribe = /* prescribe OB values */
(PID.TID 0000.0001)                   T
(PID.TID 0000.0001)     ;
(PID.TID 0000.0001) useOBCSbalance = /* balance the flow through OB */
(PID.TID 0000.0001)                   T
(PID.TID 0000.0001)     ;
(PID.TID 0000.0001) OBCS_balanceFacN = /* Northern OB Factor for balancing OB flow [-] */
(PID.TID 0000.0001)                -1.000000000000000E+00
(PID.TID 0000.0001)     ;
(PID.TID 0000.0001) OBCS_balanceFacS = /* Southern OB Factor for balancing OB flow [-] */
(PID.TID 0000.0001)                -1.000000000000000E+00
(PID.TID 0000.0001)     ;
(PID.TID 0000.0001) OBCS_balanceFacE = /* Eastern  OB Factor for balancing OB flow [-] */
(PID.TID 0000.0001)                 1.000000000000000E+00
(PID.TID 0000.0001)     ;
(PID.TID 0000.0001) OBCS_balanceFacW = /* Western  OB Factor for balancing OB flow [-] */
(PID.TID 0000.0001)                 1.000000000000000E+00
(PID.TID 0000.0001)     ;
(PID.TID 0000.0001) OBCS_uvApplyFac = /* Factor to apply to U,V 2nd column/row */
(PID.TID 0000.0001)                 1.000000000000000E+00
(PID.TID 0000.0001)     ;
(PID.TID 0000.0001) OBCS_u1_adv_T = /* Temp uses upwind adv-scheme @ OB */
(PID.TID 0000.0001)                       1
(PID.TID 0000.0001)     ;
(PID.TID 0000.0001) OBCS_u1_adv_S = /* Salt uses upwind adv-scheme @ OB */
(PID.TID 0000.0001)                       1
(PID.TID 0000.0001)     ;
(PID.TID 0000.0001) OBCS_monitorFreq = /* monitor output frequency [s] */
(PID.TID 0000.0001)                 2.400000000000000E+02
(PID.TID 0000.0001)     ;
(PID.TID 0000.0001) OBCS_monSelect = /* select group of variables to monitor */
(PID.TID 0000.0001)                       3
(PID.TID 0000.0001)     ;
(PID.TID 0000.0001) useOBCStides = /* apply tidal forcing through OB */
(PID.TID 0000.0001)                   T
(PID.TID 0000.0001)     ;
(PID.TID 0000.0001) tidalPeriod = /* (s) */
(PID.TID 0000.0001)                 4.471416500000000E+04,      /* I =  1 */
(PID.TID 0000.0001)                 4.320000100000000E+04,      /* I =  2 */
(PID.TID 0000.0001)                 4.557005400000000E+04,      /* I =  3 */
(PID.TID 0000.0001)                 4.308205000000000E+04,      /* I =  4 */
(PID.TID 0000.0001)                 8.616407700000000E+04,      /* I =  5 */
(PID.TID 0000.0001)                 9.294963600000000E+04,      /* I =  6 */
(PID.TID 0000.0001)                 8.663720000000000E+04,      /* I =  7 */
(PID.TID 0000.0001)                 9.672608600000000E+04,      /* I =  8 */
(PID.TID 0000.0001)                 1.180295546000000E+06,      /* I =  9 */
(PID.TID 0000.0001)                 2.380715864000000E+06,      /* I = 10 */
(PID.TID 0000.0001)                 2.235709100000000E+04,      /* I = 11 */
(PID.TID 0000.0001)                 2.197202200000000E+04,      /* I = 12 */
(PID.TID 0000.0001)                 2.256904200000000E+04       /* I = 13 */
(PID.TID 0000.0001)     ;
(PID.TID 0000.0001) OB_indexNone = /* null value for OB index (i.e. no OB) */
(PID.TID 0000.0001)                     -99
(PID.TID 0000.0001)     ;
(PID.TID 0000.0001) ======== Tile bi=   1 , bj=   1 ========
(PID.TID 0000.0001)  OB_Jn = /* Northern OB local indices */
(PID.TID 0000.0001)    41 @      -99                            /* I = -3: 37 */
(PID.TID 0000.0001)  OB_Js = /* Southern OB local indices */
(PID.TID 0000.0001)     4 @      -99,                           /* I = -3:  0 */
(PID.TID 0000.0001)    33 @        2,                           /* I =  1: 33 */
(PID.TID 0000.0001)     3 @      -99,                           /* I = 34: 36 */
(PID.TID 0000.0001)                       2                     /* I = 37 */
(PID.TID 0000.0001)  OB_Ie = /* Eastern OB local indices */
(PID.TID 0000.0001)    36 @      -99                            /* J = -3: 32 */
(PID.TID 0000.0001)  OB_Iw = /* Western OB local indices */
(PID.TID 0000.0001)    36 @      -99                            /* J = -3: 32 */
(PID.TID 0000.0001) ======== Tile bi=   2 , bj=   1 ========
(PID.TID 0000.0001)  OB_Jn = /* Northern OB local indices */
(PID.TID 0000.0001)    41 @      -99                            /* I = -3: 37 */
(PID.TID 0000.0001)  OB_Js = /* Southern OB local indices */
(PID.TID 0000.0001)     4 @      -99,                           /* I = -3:  0 */
(PID.TID 0000.0001)    37 @        2                            /* I =  1: 37 */
(PID.TID 0000.0001)  OB_Ie = /* Eastern OB local indices */
(PID.TID 0000.0001)    36 @      -99                            /* J = -3: 32 */
(PID.TID 0000.0001)  OB_Iw = /* Western OB local indices */
(PID.TID 0000.0001)    36 @      -99                            /* J = -3: 32 */
(PID.TID 0000.0001) ======== Tile bi=   3 , bj=   1 ========
(PID.TID 0000.0001)  OB_Jn = /* Northern OB local indices */
(PID.TID 0000.0001)    41 @      -99                            /* I = -3: 37 */
(PID.TID 0000.0001)  OB_Js = /* Southern OB local indices */
(PID.TID 0000.0001)    41 @        2                            /* I = -3: 37 */
(PID.TID 0000.0001)  OB_Ie = /* Eastern OB local indices */
(PID.TID 0000.0001)    36 @      -99                            /* J = -3: 32 */
(PID.TID 0000.0001)  OB_Iw = /* Western OB local indices */
(PID.TID 0000.0001)    36 @      -99                            /* J = -3: 32 */
(PID.TID 0000.0001) ======== Tile bi=   4 , bj=   1 ========
(PID.TID 0000.0001)  OB_Jn = /* Northern OB local indices */
(PID.TID 0000.0001)    41 @      -99                            /* I = -3: 37 */
(PID.TID 0000.0001)  OB_Js = /* Southern OB local indices */
(PID.TID 0000.0001)     3 @      -99,                           /* I = -3: -1 */
(PID.TID 0000.0001)    38 @        2                            /* I =  0: 37 */
(PID.TID 0000.0001)  OB_Ie = /* Eastern OB local indices */
(PID.TID 0000.0001)    36 @      -99                            /* J = -3: 32 */
(PID.TID 0000.0001)  OB_Iw = /* Western OB local indices */
(PID.TID 0000.0001)    36 @      -99                            /* J = -3: 32 */
(PID.TID 0000.0001) ======== Tile bi=   5 , bj=   1 ========
(PID.TID 0000.0001)  OB_Jn = /* Northern OB local indices */
(PID.TID 0000.0001)    41 @      -99                            /* I = -3: 37 */
(PID.TID 0000.0001)  OB_Js = /* Southern OB local indices */
(PID.TID 0000.0001)    41 @        2                            /* I = -3: 37 */
(PID.TID 0000.0001)  OB_Ie = /* Eastern OB local indices */
(PID.TID 0000.0001)    36 @      -99                            /* J = -3: 32 */
(PID.TID 0000.0001)  OB_Iw = /* Western OB local indices */
(PID.TID 0000.0001)    36 @      -99                            /* J = -3: 32 */
(PID.TID 0000.0001) ======== Tile bi=   6 , bj=   1 ========
(PID.TID 0000.0001)  OB_Jn = /* Northern OB local indices */
(PID.TID 0000.0001)    41 @      -99                            /* I = -3: 37 */
(PID.TID 0000.0001)  OB_Js = /* Southern OB local indices */
(PID.TID 0000.0001)    41 @        2                            /* I = -3: 37 */
(PID.TID 0000.0001)  OB_Ie = /* Eastern OB local indices */
(PID.TID 0000.0001)    36 @      -99                            /* J = -3: 32 */
(PID.TID 0000.0001)  OB_Iw = /* Western OB local indices */
(PID.TID 0000.0001)    36 @      -99                            /* J = -3: 32 */
(PID.TID 0000.0001) ======== Tile bi=   7 , bj=   1 ========
(PID.TID 0000.0001)  OB_Jn = /* Northern OB local indices */
(PID.TID 0000.0001)    41 @      -99                            /* I = -3: 37 */
(PID.TID 0000.0001)  OB_Js = /* Southern OB local indices */
(PID.TID 0000.0001)    41 @        2                            /* I = -3: 37 */
(PID.TID 0000.0001)  OB_Ie = /* Eastern OB local indices */
(PID.TID 0000.0001)    36 @      -99                            /* J = -3: 32 */
(PID.TID 0000.0001)  OB_Iw = /* Western OB local indices */
(PID.TID 0000.0001)    36 @      -99                            /* J = -3: 32 */
(PID.TID 0000.0001) ======== Tile bi=   8 , bj=   1 ========
(PID.TID 0000.0001)  OB_Jn = /* Northern OB local indices */
(PID.TID 0000.0001)    41 @      -99                            /* I = -3: 37 */
(PID.TID 0000.0001)  OB_Js = /* Southern OB local indices */
(PID.TID 0000.0001)    41 @        2                            /* I = -3: 37 */
(PID.TID 0000.0001)  OB_Ie = /* Eastern OB local indices */
(PID.TID 0000.0001)    36 @      -99                            /* J = -3: 32 */
(PID.TID 0000.0001)  OB_Iw = /* Western OB local indices */
(PID.TID 0000.0001)    36 @      -99                            /* J = -3: 32 */
(PID.TID 0000.0001) ======== Tile bi=   9 , bj=   1 ========
(PID.TID 0000.0001)  OB_Jn = /* Northern OB local indices */
(PID.TID 0000.0001)    41 @      -99                            /* I = -3: 37 */
(PID.TID 0000.0001)  OB_Js = /* Southern OB local indices */
(PID.TID 0000.0001)    41 @        2                            /* I = -3: 37 */
(PID.TID 0000.0001)  OB_Ie = /* Eastern OB local indices */
(PID.TID 0000.0001)    36 @      -99                            /* J = -3: 32 */
(PID.TID 0000.0001)  OB_Iw = /* Western OB local indices */
(PID.TID 0000.0001)    36 @      -99                            /* J = -3: 32 */
(PID.TID 0000.0001) ======== Tile bi=  10 , bj=   1 ========
(PID.TID 0000.0001)  OB_Jn = /* Northern OB local indices */
(PID.TID 0000.0001)    41 @      -99                            /* I = -3: 37 */
(PID.TID 0000.0001)  OB_Js = /* Southern OB local indices */
(PID.TID 0000.0001)    41 @        2                            /* I = -3: 37 */
(PID.TID 0000.0001)  OB_Ie = /* Eastern OB local indices */
(PID.TID 0000.0001)    36 @      -99                            /* J = -3: 32 */
(PID.TID 0000.0001)  OB_Iw = /* Western OB local indices */
(PID.TID 0000.0001)    36 @      -99                            /* J = -3: 32 */
(PID.TID 0000.0001) OBCS_CHECK: end summary.
(PID.TID 0000.0001) OBCS_CHECK: set-up OK
(PID.TID 0000.0001) OBCS_CHECK: check Inside Mask and OB locations: OK
(PID.TID 0000.0001) KPP_CHECK: #define ALLOW_KPP
(PID.TID 0000.0001)  kpp_freq = /* frequency of KPP calculation */
(PID.TID 0000.0001)                 2.400000000000000E+02
(PID.TID 0000.0001)     ;
(PID.TID 0000.0001) KPP_ghatUseTotalDiffus= /* non-local term fct of total diffus */
(PID.TID 0000.0001)                   F
(PID.TID 0000.0001)     ;
(PID.TID 0000.0001) KPPuseDoubleDiff = /* include double diffusive contrib */
(PID.TID 0000.0001)                   F
(PID.TID 0000.0001)     ;
(PID.TID 0000.0001) LimitHblStable = /* limits depth of hbl if stable cond.*/
(PID.TID 0000.0001)                   T
(PID.TID 0000.0001)     ;
(PID.TID 0000.0001)  minKPPhbl = /* minimum KPPhbl value [m] */
(PID.TID 0000.0001)                 2.500000000000000E+00
(PID.TID 0000.0001)     ;
(PID.TID 0000.0001)  epsln     = /* constant [-] */
(PID.TID 0000.0001)                 9.999999999999999E-21
(PID.TID 0000.0001)     ;
(PID.TID 0000.0001)  phepsi    = /* constant [-] */
(PID.TID 0000.0001)                 1.000000000000000E-10
(PID.TID 0000.0001)     ;
(PID.TID 0000.0001)  epsilon   = /* constant [-] */
(PID.TID 0000.0001)                 1.000000000000000E-01
(PID.TID 0000.0001)     ;
(PID.TID 0000.0001)  vonk      = /* Von Karmans constant [-] */
(PID.TID 0000.0001)                 4.000000000000000E-01
(PID.TID 0000.0001)     ;
(PID.TID 0000.0001)  dB_dz     = /* maximum N^2 in mixed layer [s^-2] */
(PID.TID 0000.0001)                 5.200000000000000E-05
(PID.TID 0000.0001)     ;
(PID.TID 0000.0001)  conc1     = /* scalar constant [-] */
(PID.TID 0000.0001)                 5.000000000000000E+00
(PID.TID 0000.0001)     ;
(PID.TID 0000.0001)  conam     = /* scalar constant [-] */
(PID.TID 0000.0001)                 1.257000000000000E+00
(PID.TID 0000.0001)     ;
(PID.TID 0000.0001)  concm     = /* scalar constant [-] */
(PID.TID 0000.0001)                 8.380000000000001E+00
(PID.TID 0000.0001)     ;
(PID.TID 0000.0001)  conc2     = /* scalar constant [-] */
(PID.TID 0000.0001)                 1.600000000000000E+01
(PID.TID 0000.0001)     ;
(PID.TID 0000.0001)  conas     = /* scalar constant [-] */
(PID.TID 0000.0001)                -2.886000000000000E+01
(PID.TID 0000.0001)     ;
(PID.TID 0000.0001)  concs     = /* scalar constant [-] */
(PID.TID 0000.0001)                 9.895999999999999E+01
(PID.TID 0000.0001)     ;
(PID.TID 0000.0001)  conc3     = /* scalar constant [-] */
(PID.TID 0000.0001)                 1.600000000000000E+01
(PID.TID 0000.0001)     ;
(PID.TID 0000.0001)  zetam     = /* scalar constant [-] */
(PID.TID 0000.0001)                -2.000000000000000E-01
(PID.TID 0000.0001)     ;
(PID.TID 0000.0001)  zetas     = /* scalar constant [-] */
(PID.TID 0000.0001)                -1.000000000000000E+00
(PID.TID 0000.0001)     ;
(PID.TID 0000.0001)  Ricr      = /* critical bulk Richardson Number [-] */
(PID.TID 0000.0001)                 3.000000000000000E-01
(PID.TID 0000.0001)     ;
(PID.TID 0000.0001)  cekman    = /* coeff for Ekman depth [-] */
(PID.TID 0000.0001)                 7.000000000000000E-01
(PID.TID 0000.0001)     ;
(PID.TID 0000.0001)  cmonob    = /* coeff for Monin-Obukhov depth [-] */
(PID.TID 0000.0001)                 1.000000000000000E+00
(PID.TID 0000.0001)     ;
(PID.TID 0000.0001)  concv     = /* buoyancy freq ratio [-] */
(PID.TID 0000.0001)                 1.800000000000000E+00
(PID.TID 0000.0001)     ;
(PID.TID 0000.0001)  hbf       = /* solar radiation depth ratio [-] */
(PID.TID 0000.0001)                 1.000000000000000E+00
(PID.TID 0000.0001)     ;
(PID.TID 0000.0001)  zmin      = /* minimum for zehat in table [m3/s3] */
(PID.TID 0000.0001)                -4.000000000000000E-07
(PID.TID 0000.0001)     ;
(PID.TID 0000.0001)  zmax      = /* maximum for zehat in table [m3/s3] */
(PID.TID 0000.0001)                 0.000000000000000E+00
(PID.TID 0000.0001)     ;
(PID.TID 0000.0001)  umin      = /* minimum for ustar in table [m/s] */
(PID.TID 0000.0001)                 0.000000000000000E+00
(PID.TID 0000.0001)     ;
(PID.TID 0000.0001)  umax      = /* maximum for ustar in table [m/s] */
(PID.TID 0000.0001)                 4.000000000000000E-02
(PID.TID 0000.0001)     ;
(PID.TID 0000.0001) num_v_smooth_Ri = /* number of vertical smoothing */
(PID.TID 0000.0001)                       0
(PID.TID 0000.0001)     ;
(PID.TID 0000.0001)  Riinfty   = /* shear instability Ri number limit [-] */
(PID.TID 0000.0001)                 7.000000000000000E-01
(PID.TID 0000.0001)     ;
(PID.TID 0000.0001)  BVSQcon   = /* Brunt-Vaisala squared (=N^2) [s^-2] */
(PID.TID 0000.0001)                -2.000000000000000E-05
(PID.TID 0000.0001)     ;
(PID.TID 0000.0001)  difm0     = /* max viscosity from shear instab. [m2/s] */
(PID.TID 0000.0001)                 5.000000000000000E-03
(PID.TID 0000.0001)     ;
(PID.TID 0000.0001)  difs0     = /* max diffusiv. from shear instab. [m2/s] */
(PID.TID 0000.0001)                 5.000000000000000E-03
(PID.TID 0000.0001)     ;
(PID.TID 0000.0001)  dift0     = /* max diffusiv. from shear instab. [m2/s] */
(PID.TID 0000.0001)                 5.000000000000000E-03
(PID.TID 0000.0001)     ;
(PID.TID 0000.0001)  difmcon   = /* convective viscosity [m2/s] */
(PID.TID 0000.0001)                 1.000000000000000E-01
(PID.TID 0000.0001)     ;
(PID.TID 0000.0001)  difscon   = /* convective diffusiv. [m2/s] */
(PID.TID 0000.0001)                 1.000000000000000E-01
(PID.TID 0000.0001)     ;
(PID.TID 0000.0001)  diftcon   = /* convective diffusiv. [m2/s] */
(PID.TID 0000.0001)                 1.000000000000000E-01
(PID.TID 0000.0001)     ;
(PID.TID 0000.0001)  Rrho0     = /* double diffusion density ratio [-] */
(PID.TID 0000.0001)                 1.900000000000000E+00
(PID.TID 0000.0001)     ;
(PID.TID 0000.0001)  dsfmax    = /* max diffusiv. for salt fingering [m2/s] */
(PID.TID 0000.0001)                 1.000000000000000E-02
(PID.TID 0000.0001)     ;
(PID.TID 0000.0001)  cstar     = /* coeff for non-locak transport [-] */
(PID.TID 0000.0001)                 1.000000000000000E+01
(PID.TID 0000.0001)     ;
(PID.TID 0000.0001) KPPwriteState = /* write KPP fields to file */
(PID.TID 0000.0001)                   F
(PID.TID 0000.0001)     ;
(PID.TID 0000.0001)  kpp_dumpFreq = /* dump freq of KPP output */
(PID.TID 0000.0001)                 0.000000000000000E+00
(PID.TID 0000.0001)     ;
(PID.TID 0000.0001)  kpp_taveFreq = /* time-averaging freq of KPP output */
(PID.TID 0000.0001)                 0.000000000000000E+00
(PID.TID 0000.0001)     ;
(PID.TID 0000.0001) 
(PID.TID 0000.0001) EXF_CHECK: #define ALLOW_EXF
(PID.TID 0000.0001) GAD_CHECK: #define ALLOW_GENERIC_ADVDIFF
(PID.TID 0000.0001) // =======================================================
(PID.TID 0000.0001) // Check Model config. (CONFIG_CHECK):
(PID.TID 0000.0001) // CONFIG_CHECK : Normal End
(PID.TID 0000.0001) // =======================================================
(PID.TID 0000.0001) 
(PID.TID 0000.0001)  MDS_READ_FIELD: opening global file: U0_1815x532x100.bin
(PID.TID 0000.0001)  MDS_READ_FIELD: opening global file: V0_1815x532x100.bin
(PID.TID 0000.0001)  MDS_READ_FIELD: opening global file: T0_1815x532x100.bin
(PID.TID 0000.0001)  MDS_READ_FIELD: opening global file: S0_1815x532x100.bin
(PID.TID 0000.0001) Start initial hydrostatic pressure computation
(PID.TID 0000.0001) Pressure is predetermined for buoyancyRelation OCEANIC
(PID.TID 0000.0001) 
(PID.TID 0000.0001)  write diagnostics summary to file ioUnit:      6
Iter.Nb:         0 ; Time(s):  0.0000000000000E+00
------------------------------------------------------------------------
2D/3D diagnostics: Number of lists:     2
------------------------------------------------------------------------
listId=    1 ; file name: diags/surface
 nFlds, nActive,       freq     &     phase        , nLev               
    5  |    5  |      3600.000000         0.000000 |   1
 levels:   1
 diag# | name   |   ipt  |  iMate | kLev|   count |   mate.C|           
    23 |ETAN    |      1 |      0 |   1 |       0 |
    80 |oceTAUX |      2 |      3 |   1 |       0 |       0 |
    81 |oceTAUY |      3 |      2 |   1 |       0 |       0 |
   185 |EXFuwind|      4 |      0 |   1 |       0 |
   186 |EXFvwind|      5 |      0 |   1 |       0 |
------------------------------------------------------------------------
listId=    2 ; file name: diags/interior
 nFlds, nActive,       freq     &     phase        , nLev               
    9  |    9  |   2592000.000000         0.000000 | 100
 levels:   1   2   3   4   5   6   7   8   9  10  11  12  13  14  15  16  17  18  19  20  21  22  23  24  25
 levels:  26  27  28  29  30  31  32  33  34  35  36  37  38  39  40  41  42  43  44  45  46  47  48  49  50
 levels:  51  52  53  54  55  56  57  58  59  60  61  62  63  64  65  66  67  68  69  70  71  72  73  74  75
 levels:  76  77  78  79  80  81  82  83  84  85  86  87  88  89  90  91  92  93  94  95  96  97  98  99 100
 diag# | name   |   ipt  |  iMate | kLev|   count |   mate.C|           
    26 |THETA   |      6 |      0 | 100 |       0 |
    27 |SALT    |    106 |      0 | 100 |       0 |
    30 |UVEL    |    206 |    306 | 100 |       0 |       0 |
    31 |VVEL    |    306 |    206 | 100 |       0 |       0 |
    32 |WVEL    |    406 |      0 | 100 |       0 |
    36 |UVELSQ  |    506 |    606 | 100 |       0 |       0 |
    37 |VVELSQ  |    606 |    506 | 100 |       0 |       0 |
    52 |WTHMASS |    706 |      0 | 100 |       0 |
    55 |WSLTMASS|    806 |      0 | 100 |       0 |
------------------------------------------------------------------------
Global & Regional Statistics diagnostics: Number of lists:     0
------------------------------------------------------------------------
(PID.TID 0000.0001)  MDS_READ_SEC_XZ: opening global file: OBNvam_1815x13.bin
(PID.TID 0000.0001)  MDS_READ_SEC_XZ: opening global file: OBNvph_1815x13.bin
(PID.TID 0000.0001)  MDS_READ_SEC_XZ: opening global file: OBSvam_1815x13.bin
(PID.TID 0000.0001)  MDS_READ_SEC_XZ: opening global file: OBSvph_1815x13.bin
(PID.TID 0000.0001)  MDS_READ_SEC_XZ: opening global file: OBNu_1815x100x26.bin
(PID.TID 0000.0001)  MDS_READ_SEC_XZ: opening global file: OBNu_1815x100x26.bin
(PID.TID 0000.0001)  MDS_READ_SEC_XZ: opening global file: OBNv_1815x100x26.bin
(PID.TID 0000.0001)  MDS_READ_SEC_XZ: opening global file: OBNv_1815x100x26.bin
(PID.TID 0000.0001)  MDS_READ_SEC_XZ: opening global file: OBNt_1815x100x26.bin
(PID.TID 0000.0001)  MDS_READ_SEC_XZ: opening global file: OBNt_1815x100x26.bin
(PID.TID 0000.0001)  MDS_READ_SEC_XZ: opening global file: OBNs_1815x100x26.bin
(PID.TID 0000.0001)  MDS_READ_SEC_XZ: opening global file: OBNs_1815x100x26.bin
(PID.TID 0000.0001)  MDS_READ_SEC_XZ: opening global file: OBSu_1815x100x26.bin
(PID.TID 0000.0001)  MDS_READ_SEC_XZ: opening global file: OBSu_1815x100x26.bin
(PID.TID 0000.0001)  MDS_READ_SEC_XZ: opening global file: OBSv_1815x100x26.bin
(PID.TID 0000.0001)  MDS_READ_SEC_XZ: opening global file: OBSv_1815x100x26.bin
(PID.TID 0000.0001)  MDS_READ_SEC_XZ: opening global file: OBSt_1815x100x26.bin
(PID.TID 0000.0001)  MDS_READ_SEC_XZ: opening global file: OBSt_1815x100x26.bin
(PID.TID 0000.0001)  MDS_READ_SEC_XZ: opening global file: OBSs_1815x100x26.bin
(PID.TID 0000.0001)  MDS_READ_SEC_XZ: opening global file: OBSs_1815x100x26.bin
(PID.TID 0000.0001) // =======================================================
(PID.TID 0000.0001) // Model current state
(PID.TID 0000.0001) // =======================================================
(PID.TID 0000.0001) 
(PID.TID 0000.0001) // =======================================================
(PID.TID 0000.0001) // Begin MONITOR dynamic field statistics
(PID.TID 0000.0001) // =======================================================
(PID.TID 0000.0001) %MON time_tsnumber                =                     0
(PID.TID 0000.0001) %MON time_secondsf                =   0.0000000000000E+00
(PID.TID 0000.0001) %MON dynstat_eta_max              =   0.0000000000000E+00
(PID.TID 0000.0001) %MON dynstat_eta_min              =   0.0000000000000E+00
(PID.TID 0000.0001) %MON dynstat_eta_mean             =   0.0000000000000E+00
(PID.TID 0000.0001) %MON dynstat_eta_sd               =   0.0000000000000E+00
(PID.TID 0000.0001) %MON dynstat_eta_del2             =   0.0000000000000E+00
(PID.TID 0000.0001) %MON dynstat_uvel_max             =   1.2655940055847E+00
(PID.TID 0000.0001) %MON dynstat_uvel_min             =  -6.7179697751999E-01
(PID.TID 0000.0001) %MON dynstat_uvel_mean            =   3.8933782453988E-03
(PID.TID 0000.0001) %MON dynstat_uvel_sd              =   5.2086469330267E-02
(PID.TID 0000.0001) %MON dynstat_uvel_del2            =   3.0019794494441E-07
(PID.TID 0000.0001) %MON dynstat_vvel_max             =   1.7893446683884E+00
(PID.TID 0000.0001) %MON dynstat_vvel_min             =  -8.8630950450897E-01
(PID.TID 0000.0001) %MON dynstat_vvel_mean            =  -1.8280046772596E-04
(PID.TID 0000.0001) %MON dynstat_vvel_sd              =   4.8402691362284E-02
(PID.TID 0000.0001) %MON dynstat_vvel_del2            =   4.0577885533845E-07
(PID.TID 0000.0001) %MON dynstat_wvel_max             =   7.9971368608728E-02
(PID.TID 0000.0001) %MON dynstat_wvel_min             =  -1.0754444829625E-01
(PID.TID 0000.0001) %MON dynstat_wvel_mean            =  -2.8537938529300E-06
(PID.TID 0000.0001) %MON dynstat_wvel_sd              =   1.3470913534516E-03
(PID.TID 0000.0001) %MON dynstat_wvel_del2            =   3.8177466245690E-07
(PID.TID 0000.0001) %MON dynstat_theta_max            =   2.6144617080688E+01
(PID.TID 0000.0001) %MON dynstat_theta_min            =   1.4688636064529E+00
(PID.TID 0000.0001) %MON dynstat_theta_mean           =   5.5098811020492E+00
(PID.TID 0000.0001) %MON dynstat_theta_sd             =   4.7735348546541E+00
(PID.TID 0000.0001) %MON dynstat_theta_del2           =   4.0189244228803E-06
(PID.TID 0000.0001) %MON dynstat_salt_max             =   3.9185241699219E+01
(PID.TID 0000.0001) %MON dynstat_salt_min             =   3.3089591979980E+01
(PID.TID 0000.0001) %MON dynstat_salt_mean            =   3.5173374558495E+01
(PID.TID 0000.0001) %MON dynstat_salt_sd              =   3.7891790794923E-01
(PID.TID 0000.0001) %MON dynstat_salt_del2            =   4.9655867703385E-07
(PID.TID 0000.0001) %MON forcing_qnet_max             =   0.0000000000000E+00
(PID.TID 0000.0001) %MON forcing_qnet_min             =   0.0000000000000E+00
(PID.TID 0000.0001) %MON forcing_qnet_mean            =   0.0000000000000E+00
(PID.TID 0000.0001) %MON forcing_qnet_sd              =   0.0000000000000E+00
(PID.TID 0000.0001) %MON forcing_qnet_del2            =   0.0000000000000E+00
(PID.TID 0000.0001) %MON forcing_qsw_max              =   0.0000000000000E+00
(PID.TID 0000.0001) %MON forcing_qsw_min              =   0.0000000000000E+00
(PID.TID 0000.0001) %MON forcing_qsw_mean             =   0.0000000000000E+00
(PID.TID 0000.0001) %MON forcing_qsw_sd               =   0.0000000000000E+00
(PID.TID 0000.0001) %MON forcing_qsw_del2             =   0.0000000000000E+00
(PID.TID 0000.0001) %MON forcing_empmr_max            =   0.0000000000000E+00
(PID.TID 0000.0001) %MON forcing_empmr_min            =   0.0000000000000E+00
(PID.TID 0000.0001) %MON forcing_empmr_mean           =   0.0000000000000E+00
(PID.TID 0000.0001) %MON forcing_empmr_sd             =   0.0000000000000E+00
(PID.TID 0000.0001) %MON forcing_empmr_del2           =   0.0000000000000E+00
(PID.TID 0000.0001) %MON forcing_fu_max               =   0.0000000000000E+00
(PID.TID 0000.0001) %MON forcing_fu_min               =   0.0000000000000E+00
(PID.TID 0000.0001) %MON forcing_fu_mean              =   0.0000000000000E+00
(PID.TID 0000.0001) %MON forcing_fu_sd                =   0.0000000000000E+00
(PID.TID 0000.0001) %MON forcing_fu_del2              =   0.0000000000000E+00
(PID.TID 0000.0001) %MON forcing_fv_max               =   0.0000000000000E+00
(PID.TID 0000.0001) %MON forcing_fv_min               =   0.0000000000000E+00
(PID.TID 0000.0001) %MON forcing_fv_mean              =   0.0000000000000E+00
(PID.TID 0000.0001) %MON forcing_fv_sd                =   0.0000000000000E+00
(PID.TID 0000.0001) %MON forcing_fv_del2              =   0.0000000000000E+00
(PID.TID 0000.0001) %MON trAdv_CFL_u_max              =   0.0000000000000E+00
(PID.TID 0000.0001) %MON trAdv_CFL_v_max              =   0.0000000000000E+00
(PID.TID 0000.0001) %MON trAdv_CFL_w_max              =   0.0000000000000E+00
(PID.TID 0000.0001) %MON advcfl_uvel_max              =   7.6757822680034E-02
(PID.TID 0000.0001) %MON advcfl_vvel_max              =   1.1363552115820E-01
(PID.TID 0000.0001) %MON advcfl_wvel_max              =   1.0324267036440E+01
(PID.TID 0000.0001) %MON advcfl_W_hf_max              =   5.1515900021927E+00
(PID.TID 0000.0001) %MON pe_b_mean                    =   0.0000000000000E+00
(PID.TID 0000.0001) %MON ke_max                       =   1.6014653258787E+00
(PID.TID 0000.0001) %MON ke_mean                      =   2.5167051881091E-03
(PID.TID 0000.0001) %MON ke_vol                       =   4.5818637279721E+16
(PID.TID 0000.0001) %MON vort_r_min                   =  -2.7112786765354E-04
(PID.TID 0000.0001) %MON vort_r_max                   =   3.7577210354274E-04
(PID.TID 0000.0001) %MON vort_a_mean                  =   8.2147638849892E-05
(PID.TID 0000.0001) %MON vort_a_sd                    =   1.0110290388242E-05
(PID.TID 0000.0001) %MON vort_p_mean                  =   8.4848860677297E-05
(PID.TID 0000.0001) %MON vort_p_sd                    =   3.4983714601204E-05
(PID.TID 0000.0001) %MON surfExpan_theta_mean         =  -1.0856946973377E-05
(PID.TID 0000.0001) %MON surfExpan_salt_mean          =  -2.3321313310161E-04
(PID.TID 0000.0001) // =======================================================
(PID.TID 0000.0001) // End MONITOR dynamic field statistics
(PID.TID 0000.0001) // =======================================================
(PID.TID 0000.0001) // =======================================================
(PID.TID 0000.0001) // Begin OBCS MONITOR field statistics
(PID.TID 0000.0001) // =======================================================
(PID.TID 0000.0001) %MON obc_N_vVel_max               =   7.2635543866640E-01
(PID.TID 0000.0001) %MON obc_N_vVel_min               =  -4.4518381776992E-01
(PID.TID 0000.0001) %MON obc_N_vVel_mean              =   1.4005757336272E-02
(PID.TID 0000.0001) %MON obc_N_vVel_sd                =   6.5459891808250E-02
(PID.TID 0000.0001) %MON obc_N_vVel_Int               =   2.0049359923242E+08
(PID.TID 0000.0001) %MON obc_S_vVel_max               =   1.5583460594420E+00
(PID.TID 0000.0001) %MON obc_S_vVel_min               =  -2.6046463383554E-01
(PID.TID 0000.0001) %MON obc_S_vVel_mean              =   3.9285777969368E-03
(PID.TID 0000.0001) %MON obc_S_vVel_sd                =   3.5948715854204E-02
(PID.TID 0000.0001) %MON obc_S_vVel_Int               =   1.1959729972942E+08
(PID.TID 0000.0001) %MON obc_N_theta_max              =   1.6390861045164E+01
(PID.TID 0000.0001) %MON obc_N_theta_min              =   1.8895907269856E+00
(PID.TID 0000.0001) %MON obc_N_theta_mean             =   5.1589805018889E+00
(PID.TID 0000.0001) %MON obc_N_theta_sd               =   3.4827339404776E+00
(PID.TID 0000.0001) %MON obc_S_theta_max              =   2.5544941308807E+01
(PID.TID 0000.0001) %MON obc_S_theta_min              =   1.4632956408867E+00
(PID.TID 0000.0001) %MON obc_S_theta_mean             =   5.4595577802115E+00
(PID.TID 0000.0001) %MON obc_S_theta_sd               =   5.3559370357223E+00
(PID.TID 0000.0001) %MON obc_N_salt_max               =   3.5910867647958E+01
(PID.TID 0000.0001) %MON obc_N_salt_min               =   3.3295014070045E+01
(PID.TID 0000.0001) %MON obc_N_salt_mean              =   3.5114564316350E+01
(PID.TID 0000.0001) %MON obc_N_salt_sd                =   3.0984932953373E-01
(PID.TID 0000.0001) %MON obc_S_salt_max               =   3.7318346630621E+01
(PID.TID 0000.0001) %MON obc_S_salt_min               =   3.4844694313817E+01
(PID.TID 0000.0001) %MON obc_S_salt_mean              =   3.5168372938835E+01
(PID.TID 0000.0001) %MON obc_S_salt_sd                =   4.5717110791086E-01
(PID.TID 0000.0001) // =======================================================
(PID.TID 0000.0001) // End OBCS MONITOR field statistics
(PID.TID 0000.0001) // =======================================================
(PID.TID 0000.0001)  EXF_INTERP_READ: opening file: era_forcing/ERA5_u10m_2008
(PID.TID 0000.0001)  EXF_INTERP_READ: opening file: era_forcing/ERA5_v10m_2008
(PID.TID 0000.0001)  EXF_INTERP_UV: fileU="era_forcing/ERA5_u10m_2008", rec=     1 , x-Per,P.Sym=    T    T
(PID.TID 0000.0001)  S.edge (j=-1,0,1) : proc= 2.2 1.1 0.0, yIn=  -90.215115  -90.000000  -89.784885
(PID.TID 0000.0001)  N.edge (j=+0,+1,+2) proc= 0.0 1.1 2.2, yIn=   89.784885   90.000000   90.215115
(PID.TID 0000.0001)  EXF_INTERP_READ: opening file: era_forcing/ERA5_u10m_2008
(PID.TID 0000.0001)  EXF_INTERP_READ: opening file: era_forcing/ERA5_v10m_2008
(PID.TID 0000.0001)  EXF_INTERP_UV: fileU="era_forcing/ERA5_u10m_2008", rec=     2 , x-Per,P.Sym=    T    T
(PID.TID 0000.0001)  S.edge (j=-1,0,1) : proc= 2.2 1.1 0.0, yIn=  -90.215115  -90.000000  -89.784885
(PID.TID 0000.0001)  N.edge (j=+0,+1,+2) proc= 0.0 1.1 2.2, yIn=   89.784885   90.000000   90.215115
(PID.TID 0000.0001)  EXF_INTERP_READ: opening file: era_forcing/ERA5_tmp2m_degC_2008
(PID.TID 0000.0001)  EXF_INTERP: file="era_forcing/ERA5_tmp2m_degC_2008", rec=     1 , x-Per,P.Sym=    T    T
(PID.TID 0000.0001)  S.edge (j=-1,0,1) : proc= 2.2 1.1 0.0, yIn=  -90.215115  -90.000000  -89.784885
(PID.TID 0000.0001)  N.edge (j=+0,+1,+2) proc= 0.0 1.1 2.2, yIn=   89.784885   90.000000   90.215115
(PID.TID 0000.0001)  EXF_INTERP_READ: opening file: era_forcing/ERA5_tmp2m_degC_2008
(PID.TID 0000.0001)  EXF_INTERP: file="era_forcing/ERA5_tmp2m_degC_2008", rec=     2 , x-Per,P.Sym=    T    T
(PID.TID 0000.0001)  S.edge (j=-1,0,1) : proc= 2.2 1.1 0.0, yIn=  -90.215115  -90.000000  -89.784885
(PID.TID 0000.0001)  N.edge (j=+0,+1,+2) proc= 0.0 1.1 2.2, yIn=   89.784885   90.000000   90.215115
(PID.TID 0000.0001)  EXF_INTERP_READ: opening file: era_forcing/ERA5_spfh2m_2008
(PID.TID 0000.0001)  EXF_INTERP: file="era_forcing/ERA5_spfh2m_2008", rec=     1 , x-Per,P.Sym=    T    T
(PID.TID 0000.0001)  S.edge (j=-1,0,1) : proc= 2.2 1.1 0.0, yIn=  -90.215115  -90.000000  -89.784885
(PID.TID 0000.0001)  N.edge (j=+0,+1,+2) proc= 0.0 1.1 2.2, yIn=   89.784885   90.000000   90.215115
(PID.TID 0000.0001)  EXF_INTERP_READ: opening file: era_forcing/ERA5_spfh2m_2008
(PID.TID 0000.0001)  EXF_INTERP: file="era_forcing/ERA5_spfh2m_2008", rec=     2 , x-Per,P.Sym=    T    T
(PID.TID 0000.0001)  S.edge (j=-1,0,1) : proc= 2.2 1.1 0.0, yIn=  -90.215115  -90.000000  -89.784885
(PID.TID 0000.0001)  N.edge (j=+0,+1,+2) proc= 0.0 1.1 2.2, yIn=   89.784885   90.000000   90.215115
(PID.TID 0000.0001)  EXF_INTERP_READ: opening file: era_forcing/ERA5_rain_2007
(PID.TID 0000.0001)  EXF_INTERP: file="era_forcing/ERA5_rain_2007", rec=  8760 , x-Per,P.Sym=    T    T
(PID.TID 0000.0001)  S.edge (j=-1,0,1) : proc= 2.2 1.1 0.0, yIn=  -90.215115  -90.000000  -89.784885
(PID.TID 0000.0001)  N.edge (j=+0,+1,+2) proc= 0.0 1.1 2.2, yIn=   89.784885   90.000000   90.215115
(PID.TID 0000.0001)  EXF_INTERP_READ: opening file: era_forcing/ERA5_rain_2008
(PID.TID 0000.0001)  EXF_INTERP: file="era_forcing/ERA5_rain_2008", rec=     1 , x-Per,P.Sym=    T    T
(PID.TID 0000.0001)  S.edge (j=-1,0,1) : proc= 2.2 1.1 0.0, yIn=  -90.215115  -90.000000  -89.784885
(PID.TID 0000.0001)  N.edge (j=+0,+1,+2) proc= 0.0 1.1 2.2, yIn=   89.784885   90.000000   90.215115
(PID.TID 0000.0001)  EXF_INTERP_READ: opening file: era_forcing/ERA5_dsw_2007
(PID.TID 0000.0001)  EXF_INTERP: file="era_forcing/ERA5_dsw_2007", rec=  8760 , x-Per,P.Sym=    T    T
(PID.TID 0000.0001)  S.edge (j=-1,0,1) : proc= 2.2 1.1 0.0, yIn=  -90.215115  -90.000000  -89.784885
(PID.TID 0000.0001)  N.edge (j=+0,+1,+2) proc= 0.0 1.1 2.2, yIn=   89.784885   90.000000   90.215115
(PID.TID 0000.0001)  EXF_INTERP_READ: opening file: era_forcing/ERA5_dsw_2008
(PID.TID 0000.0001)  EXF_INTERP: file="era_forcing/ERA5_dsw_2008", rec=     1 , x-Per,P.Sym=    T    T
(PID.TID 0000.0001)  S.edge (j=-1,0,1) : proc= 2.2 1.1 0.0, yIn=  -90.215115  -90.000000  -89.784885
(PID.TID 0000.0001)  N.edge (j=+0,+1,+2) proc= 0.0 1.1 2.2, yIn=   89.784885   90.000000   90.215115
(PID.TID 0000.0001)  EXF_INTERP_READ: opening file: era_forcing/ERA5_dlw_2007
(PID.TID 0000.0001)  EXF_INTERP: file="era_forcing/ERA5_dlw_2007", rec=  8760 , x-Per,P.Sym=    T    T
(PID.TID 0000.0001)  S.edge (j=-1,0,1) : proc= 2.2 1.1 0.0, yIn=  -90.215115  -90.000000  -89.784885
(PID.TID 0000.0001)  N.edge (j=+0,+1,+2) proc= 0.0 1.1 2.2, yIn=   89.784885   90.000000   90.215115
(PID.TID 0000.0001)  EXF_INTERP_READ: opening file: era_forcing/ERA5_dlw_2008
(PID.TID 0000.0001)  EXF_INTERP: file="era_forcing/ERA5_dlw_2008", rec=     1 , x-Per,P.Sym=    T    T
(PID.TID 0000.0001)  S.edge (j=-1,0,1) : proc= 2.2 1.1 0.0, yIn=  -90.215115  -90.000000  -89.784885
(PID.TID 0000.0001)  N.edge (j=+0,+1,+2) proc= 0.0 1.1 2.2, yIn=   89.784885   90.000000   90.215115
(PID.TID 0000.0001)  EXF_INTERP_READ: opening file: era_forcing/ERA5_pres_2008
(PID.TID 0000.0001)  EXF_INTERP: file="era_forcing/ERA5_pres_2008", rec=     1 , x-Per,P.Sym=    T    T
(PID.TID 0000.0001)  S.edge (j=-1,0,1) : proc= 2.2 1.1 0.0, yIn=  -90.215115  -90.000000  -89.784885
(PID.TID 0000.0001)  N.edge (j=+0,+1,+2) proc= 0.0 1.1 2.2, yIn=   89.784885   90.000000   90.215115
(PID.TID 0000.0001)  EXF_INTERP_READ: opening file: era_forcing/ERA5_pres_2008
(PID.TID 0000.0001)  EXF_INTERP: file="era_forcing/ERA5_pres_2008", rec=     2 , x-Per,P.Sym=    T    T
(PID.TID 0000.0001)  S.edge (j=-1,0,1) : proc= 2.2 1.1 0.0, yIn=  -90.215115  -90.000000  -89.784885
(PID.TID 0000.0001)  N.edge (j=+0,+1,+2) proc= 0.0 1.1 2.2, yIn=   89.784885   90.000000   90.215115
(PID.TID 0000.0001)  EXF_INTERP_READ: opening file: tide_IAU_EARTH_2008
(PID.TID 0000.0001)  EXF_INTERP: file="tide_IAU_EARTH_2008", rec=     1 , x-Per,P.Sym=    T    T
(PID.TID 0000.0001)  S.edge (j=-1,0,1) : proc= 0.2 0.2 0.1, yIn=  -92.000000  -91.000000  -90.000000
(PID.TID 0000.0001)  N.edge (j=+0,+1,+2) proc= 0.1 0.2 0.2, yIn=   90.000000   91.000000   92.000000
(PID.TID 0000.0001)  EXF_INTERP_READ: opening file: tide_IAU_EARTH_2008
(PID.TID 0000.0001)  EXF_INTERP: file="tide_IAU_EARTH_2008", rec=     2 , x-Per,P.Sym=    T    T
(PID.TID 0000.0001)  S.edge (j=-1,0,1) : proc= 0.2 0.2 0.1, yIn=  -92.000000  -91.000000  -90.000000
(PID.TID 0000.0001)  N.edge (j=+0,+1,+2) proc= 0.1 0.2 0.2, yIn=   90.000000   91.000000   92.000000
(PID.TID 0000.0001)  EXF_INTERP_READ: opening file: runoff1p2472-360x180x12.bin
(PID.TID 0000.0001)  EXF_INTERP: file="runoff1p2472-360x180x12.bin", rec=    12 , x-Per,P.Sym=    T    T
(PID.TID 0000.0001)  S.edge (j=-1,0,1) : proc= 2.2 1.1 0.0, yIn=  -90.500000  -90.000000  -89.500000
(PID.TID 0000.0001)  N.edge (j=+0,+1,+2) proc= 0.0 1.1 2.2, yIn=   89.500000   90.000000   90.500000
(PID.TID 0000.0001)  EXF_INTERP_READ: opening file: runoff1p2472-360x180x12.bin
(PID.TID 0000.0001)  EXF_INTERP: file="runoff1p2472-360x180x12.bin", rec=     1 , x-Per,P.Sym=    T    T
(PID.TID 0000.0001)  S.edge (j=-1,0,1) : proc= 2.2 1.1 0.0, yIn=  -90.500000  -90.000000  -89.500000
(PID.TID 0000.0001)  N.edge (j=+0,+1,+2) proc= 0.0 1.1 2.2, yIn=   89.500000   90.000000   90.500000
(PID.TID 0000.0001) // =======================================================
(PID.TID 0000.0001) // Begin MONITOR EXF statistics
(PID.TID 0000.0001) // =======================================================
(PID.TID 0000.0001) %MON exf_tsnumber                 =                     0
(PID.TID 0000.0001) %MON exf_time_sec                 =   0.0000000000000E+00
(PID.TID 0000.0001) %MON exf_ustress_max              =   8.4451586982345E-01
(PID.TID 0000.0001) %MON exf_ustress_min              =  -4.3388026741727E-01
(PID.TID 0000.0001) %MON exf_ustress_mean             =   6.3244364202746E-02
(PID.TID 0000.0001) %MON exf_ustress_sd               =   1.5772665826670E-01
(PID.TID 0000.0001) %MON exf_ustress_del2             =   4.4517784549723E-07
(PID.TID 0000.0001) %MON exf_vstress_max              =   4.3288199583206E-01
(PID.TID 0000.0001) %MON exf_vstress_min              =  -5.7662873983580E-01
(PID.TID 0000.0001) %MON exf_vstress_mean             =   1.0766040009127E-02
(PID.TID 0000.0001) %MON exf_vstress_sd               =   1.0393303599385E-01
(PID.TID 0000.0001) %MON exf_vstress_del2             =   3.5547166149943E-07
(PID.TID 0000.0001) %MON exf_hflux_max                =   1.1426329991944E+03
(PID.TID 0000.0001) %MON exf_hflux_min                =  -2.5286213233087E+02
(PID.TID 0000.0001) %MON exf_hflux_mean               =   2.4640051055586E+02
(PID.TID 0000.0001) %MON exf_hflux_sd                 =   1.4494884108647E+02
(PID.TID 0000.0001) %MON exf_hflux_del2               =   1.1218474617509E-01
(PID.TID 0000.0001) %MON exf_sflux_max                =   2.6342200134154E-07
(PID.TID 0000.0001) %MON exf_sflux_min                =  -7.7122086946965E-07
(PID.TID 0000.0001) %MON exf_sflux_mean               =   1.0894853865858E-08
(PID.TID 0000.0001) %MON exf_sflux_sd                 =   9.8849483911157E-08
(PID.TID 0000.0001) %MON exf_sflux_del2               =   3.9006252179659E-11
(PID.TID 0000.0001) %MON exf_uwind_max                =   1.9606748338893E+01
(PID.TID 0000.0001) %MON exf_uwind_min                =  -1.5209100052697E+01
(PID.TID 0000.0001) %MON exf_uwind_mean               =   2.4660403514279E+00
(PID.TID 0000.0001) %MON exf_uwind_sd                 =   6.7030914983872E+00
(PID.TID 0000.0001) %MON exf_uwind_del2               =   2.8506324369397E-03
(PID.TID 0000.0001) %MON exf_vwind_max                =   1.4862500561074E+01
(PID.TID 0000.0001) %MON exf_vwind_min                =  -1.2856546570003E+01
(PID.TID 0000.0001) %MON exf_vwind_mean               =   8.4481283167121E-01
(PID.TID 0000.0001) %MON exf_vwind_sd                 =   5.2438538365845E+00
(PID.TID 0000.0001) %MON exf_vwind_del2               =   2.1097883462160E-03
(PID.TID 0000.0001) %MON exf_wspeed_max               =   2.0676576344075E+01
(PID.TID 0000.0001) %MON exf_wspeed_min               =   2.9018476250048E-03
(PID.TID 0000.0001) %MON exf_wspeed_mean              =   7.7680458492621E+00
(PID.TID 0000.0001) %MON exf_wspeed_sd                =   4.3453384349669E+00
(PID.TID 0000.0001) %MON exf_wspeed_del2              =   3.5460651087817E-03
(PID.TID 0000.0001) %MON exf_atemp_max                =   2.9817782416526E+02
(PID.TID 0000.0001) %MON exf_atemp_min                =   2.7455175867563E+02
(PID.TID 0000.0001) %MON exf_atemp_mean               =   2.9070214679347E+02
(PID.TID 0000.0001) %MON exf_atemp_sd                 =   3.9454298781272E+00
(PID.TID 0000.0001) %MON exf_atemp_del2               =   6.8498006926938E-03
(PID.TID 0000.0001) %MON exf_aqh_max                  =   1.6822475533329E-02
(PID.TID 0000.0001) %MON exf_aqh_min                  =   2.7400629324803E-03
(PID.TID 0000.0001) %MON exf_aqh_mean                 =   9.4287725015436E-03
(PID.TID 0000.0001) %MON exf_aqh_sd                   =   2.8741639256530E-03
(PID.TID 0000.0001) %MON exf_aqh_del2                 =   3.7536812242073E-06
(PID.TID 0000.0001) %MON exf_lwflux_max               =   1.5206774622875E+02
(PID.TID 0000.0001) %MON exf_lwflux_min               =   1.6673561113809E+01
(PID.TID 0000.0001) %MON exf_lwflux_mean              =   7.1263408871750E+01
(PID.TID 0000.0001) %MON exf_lwflux_sd                =   2.0933698112870E+01
(PID.TID 0000.0001) %MON exf_lwflux_del2              =   2.8556564443616E-02
(PID.TID 0000.0001) %MON exf_evap_max                 =   2.6993687419213E-07
(PID.TID 0000.0001) %MON exf_evap_min                 =  -9.0660349981682E-08
(PID.TID 0000.0001) %MON exf_evap_mean                =   5.9648202565299E-08
(PID.TID 0000.0001) %MON exf_evap_sd                  =   4.2510026986233E-08
(PID.TID 0000.0001) %MON exf_evap_del2                =   2.8749175164136E-11
(PID.TID 0000.0001) %MON exf_precip_max               =   9.4246541647784E-07
(PID.TID 0000.0001) %MON exf_precip_min               =   0.0000000000000E+00
(PID.TID 0000.0001) %MON exf_precip_mean              =   4.7164869294221E-08
(PID.TID 0000.0001) %MON exf_precip_sd                =   9.2958497283911E-08
(PID.TID 0000.0001) %MON exf_precip_del2              =   4.1544877787042E-11
(PID.TID 0000.0001) %MON exf_swflux_max               =   0.0000000000000E+00
(PID.TID 0000.0001) %MON exf_swflux_min               =   0.0000000000000E+00
(PID.TID 0000.0001) %MON exf_swflux_mean              =   0.0000000000000E+00
(PID.TID 0000.0001) %MON exf_swflux_sd                =   0.0000000000000E+00
(PID.TID 0000.0001) %MON exf_swflux_del2              =   0.0000000000000E+00
(PID.TID 0000.0001) %MON exf_swdown_max               =   0.0000000000000E+00
(PID.TID 0000.0001) %MON exf_swdown_min               =   0.0000000000000E+00
(PID.TID 0000.0001) %MON exf_swdown_mean              =   0.0000000000000E+00
(PID.TID 0000.0001) %MON exf_swdown_sd                =   0.0000000000000E+00
(PID.TID 0000.0001) %MON exf_swdown_del2              =   0.0000000000000E+00
(PID.TID 0000.0001) %MON exf_lwdown_max               =   3.9820518771429E+02
(PID.TID 0000.0001) %MON exf_lwdown_min               =   2.2735753040754E+02
(PID.TID 0000.0001) %MON exf_lwdown_mean              =   3.4365975552612E+02
(PID.TID 0000.0001) %MON exf_lwdown_sd                =   2.5519938563091E+01
(PID.TID 0000.0001) %MON exf_lwdown_del2              =   1.3287608044832E-01
(PID.TID 0000.0001) %MON exf_apressure_max            =   1.0278540583118E+05
(PID.TID 0000.0001) %MON exf_apressure_min            =   9.9972821377996E+04
(PID.TID 0000.0001) %MON exf_apressure_mean           =   1.0215907878038E+05
(PID.TID 0000.0001) %MON exf_apressure_sd             =   5.0098246938817E+02
(PID.TID 0000.0001) %MON exf_apressure_del2           =   3.9517258494995E+01
(PID.TID 0000.0001) %MON exf_runoff_max               =   4.4374791284855E-08
(PID.TID 0000.0001) %MON exf_runoff_min               =   0.0000000000000E+00
(PID.TID 0000.0001) %MON exf_runoff_mean              =   1.5884794052194E-09
(PID.TID 0000.0001) %MON exf_runoff_sd                =   5.3901957917178E-09
(PID.TID 0000.0001) %MON exf_runoff_del2              =   2.2191214937507E-12
(PID.TID 0000.0001) // =======================================================
(PID.TID 0000.0001) // End MONITOR EXF statistics
(PID.TID 0000.0001) // =======================================================
(PID.TID 0000.0001) SOLVE_FOR_PRESSURE: putPmEinXvector =    F
 cg2d: Sum(rhs),rhsMax =   6.45299479136181E+01  5.32160743233418E-01
(PID.TID 0000.0001)      cg2d_init_res =   1.56544202112021E+01
(PID.TID 0000.0001)      cg2d_iters(min,last) =      -1     327
(PID.TID 0000.0001)      cg2d_last_res =   6.57217688559976E-12
(PID.TID 0000.0001) // =======================================================
(PID.TID 0000.0001) // Begin MONITOR dynamic field statistics
(PID.TID 0000.0001) // =======================================================
(PID.TID 0000.0001) %MON time_tsnumber                =                     1
(PID.TID 0000.0001) %MON time_secondsf                =   2.4000000000000E+02
(PID.TID 0000.0001) %MON dynstat_eta_max              =   9.9431805230171E-01
(PID.TID 0000.0001) %MON dynstat_eta_min              =  -1.5452646133734E+00
(PID.TID 0000.0001) %MON dynstat_eta_mean             =  -2.1944764623387E-03
(PID.TID 0000.0001) %MON dynstat_eta_sd               =   6.7550985266206E-02
(PID.TID 0000.0001) %MON dynstat_eta_del2             =   7.8265471353650E-06
(PID.TID 0000.0001) %MON dynstat_uvel_max             =   1.2718059781731E+00
(PID.TID 0000.0001) %MON dynstat_uvel_min             =  -6.9993271560457E-01
(PID.TID 0000.0001) %MON dynstat_uvel_mean            =   3.8474246807007E-03
(PID.TID 0000.0001) %MON dynstat_uvel_sd              =   5.2154869327173E-02
(PID.TID 0000.0001) %MON dynstat_uvel_del2            =   4.4004733283784E-07
(PID.TID 0000.0001) %MON dynstat_vvel_max             =   1.7878560603876E+00
(PID.TID 0000.0001) %MON dynstat_vvel_min             =  -8.8816891492733E-01
(PID.TID 0000.0001) %MON dynstat_vvel_mean            =  -6.8145024772460E-04
(PID.TID 0000.0001) %MON dynstat_vvel_sd              =   4.8198143629719E-02
(PID.TID 0000.0001) %MON dynstat_vvel_del2            =   4.1803023826909E-07
(PID.TID 0000.0001) %MON dynstat_wvel_max             =   3.6299474354600E-02
(PID.TID 0000.0001) %MON dynstat_wvel_min             =  -3.3452207146908E-02
(PID.TID 0000.0001) %MON dynstat_wvel_mean            =  -4.0723318550470E-06
(PID.TID 0000.0001) %MON dynstat_wvel_sd              =   5.9929921785735E-04
(PID.TID 0000.0001) %MON dynstat_wvel_del2            =   9.0729718219147E-08
(PID.TID 0000.0001) %MON dynstat_theta_max            =   2.6141613554692E+01
(PID.TID 0000.0001) %MON dynstat_theta_min            =   1.4688636838017E+00
(PID.TID 0000.0001) %MON dynstat_theta_mean           =   5.5098731636137E+00
(PID.TID 0000.0001) %MON dynstat_theta_sd             =   4.7735083720713E+00
(PID.TID 0000.0001) %MON dynstat_theta_del2           =   4.0090248146506E-06
(PID.TID 0000.0001) %MON dynstat_salt_max             =   3.9184249639887E+01
(PID.TID 0000.0001) %MON dynstat_salt_min             =   3.3090165147631E+01
(PID.TID 0000.0001) %MON dynstat_salt_mean            =   3.5173373008742E+01
(PID.TID 0000.0001) %MON dynstat_salt_sd              =   3.7891604576615E-01
(PID.TID 0000.0001) %MON dynstat_salt_del2            =   4.9529049256640E-07
(PID.TID 0000.0001) %MON forcing_qnet_max             =   1.1600978682955E+03
(PID.TID 0000.0001) %MON forcing_qnet_min             =  -2.5825650999885E+02
(PID.TID 0000.0001) %MON forcing_qnet_mean            =   2.4794911565443E+02
(PID.TID 0000.0001) %MON forcing_qnet_sd              =   1.4819406318854E+02
(PID.TID 0000.0001) %MON forcing_qnet_del2            =   1.7133249555487E-03
(PID.TID 0000.0001) %MON forcing_qsw_max              =   0.0000000000000E+00
(PID.TID 0000.0001) %MON forcing_qsw_min              =   0.0000000000000E+00
(PID.TID 0000.0001) %MON forcing_qsw_mean             =   0.0000000000000E+00
(PID.TID 0000.0001) %MON forcing_qsw_sd               =   0.0000000000000E+00
(PID.TID 0000.0001) %MON forcing_qsw_del2             =   0.0000000000000E+00
(PID.TID 0000.0001) %MON forcing_empmr_max            =   2.6342200134154E-04
(PID.TID 0000.0001) %MON forcing_empmr_min            =  -7.7122086946965E-04
(PID.TID 0000.0001) %MON forcing_empmr_mean           =   1.0894853865858E-05
(PID.TID 0000.0001) %MON forcing_empmr_sd             =   9.8849483911157E-05
(PID.TID 0000.0001) %MON forcing_empmr_del2           =   2.4614843144733E-09
(PID.TID 0000.0001) %MON forcing_fu_max               =   8.4410884635941E-01
(PID.TID 0000.0001) %MON forcing_fu_min               =  -4.3380236043717E-01
(PID.TID 0000.0001) %MON forcing_fu_mean              =   6.3300543845974E-02
(PID.TID 0000.0001) %MON forcing_fu_sd                =   1.5778492051936E-01
(PID.TID 0000.0001) %MON forcing_fu_del2              =   4.1500369742454E-07
(PID.TID 0000.0001) %MON forcing_fv_max               =   4.3246026434874E-01
(PID.TID 0000.0001) %MON forcing_fv_min               =  -5.7780024849120E-01
(PID.TID 0000.0001) %MON forcing_fv_mean              =   1.0745252758602E-02
(PID.TID 0000.0001) %MON forcing_fv_sd                =   1.0406041929612E-01
(PID.TID 0000.0001) %MON forcing_fv_del2              =   3.3430834909793E-07
(PID.TID 0000.0001) %MON trAdv_CFL_u_max              =   7.7151467631406E-02
(PID.TID 0000.0001) %MON trAdv_CFL_v_max              =   1.1349855975231E-01
(PID.TID 0000.0001) %MON trAdv_CFL_w_max              =   6.5342559400290E-01
(PID.TID 0000.0001) %MON advcfl_uvel_max              =   7.7151466580919E-02
(PID.TID 0000.0001) %MON advcfl_vvel_max              =   1.1353198252943E-01
(PID.TID 0000.0001) %MON advcfl_wvel_max              =   6.5342559400290E-01
(PID.TID 0000.0001) %MON advcfl_W_hf_max              =   6.5342559400290E-01
(PID.TID 0000.0001) %MON pe_b_mean                    =  -4.7416825296845E-05
(PID.TID 0000.0001) %MON ke_max                       =   1.6055232825880E+00
(PID.TID 0000.0001) %MON ke_mean                      =   2.5104580340020E-03
(PID.TID 0000.0001) %MON ke_vol                       =   4.5818637279721E+16
(PID.TID 0000.0001) %MON vort_r_min                   =  -3.7683281676814E-04
(PID.TID 0000.0001) %MON vort_r_max                   =   4.0071480007711E-04
(PID.TID 0000.0001) %MON vort_a_mean                  =   8.2147638260793E-05
(PID.TID 0000.0001) %MON vort_a_sd                    =   1.0118689775083E-05
(PID.TID 0000.0001) %MON vort_p_mean                  =   8.4848860068827E-05
(PID.TID 0000.0001) %MON vort_p_sd                    =   3.4984307469804E-05
(PID.TID 0000.0001) %MON surfExpan_theta_mean         =   9.1925718703997E-06
(PID.TID 0000.0001) %MON surfExpan_salt_mean          =  -2.9886236779690E-04
(PID.TID 0000.0001) // =======================================================
(PID.TID 0000.0001) // End MONITOR dynamic field statistics
(PID.TID 0000.0001) // =======================================================
(PID.TID 0000.0001) // =======================================================
(PID.TID 0000.0001) // Begin OBCS MONITOR field statistics
(PID.TID 0000.0001) // =======================================================
(PID.TID 0000.0001) %MON obc_N_vVel_max               =   7.0657486053555E-01
(PID.TID 0000.0001) %MON obc_N_vVel_min               =  -4.4697455494216E-01
(PID.TID 0000.0001) %MON obc_N_vVel_mean              =   1.4099106261222E-02
(PID.TID 0000.0001) %MON obc_N_vVel_sd                =   6.5449758017484E-02
(PID.TID 0000.0001) %MON obc_N_vVel_Int               =   2.0182989697757E+08
(PID.TID 0000.0001) %MON obc_S_vVel_max               =   1.5593193630845E+00
(PID.TID 0000.0001) %MON obc_S_vVel_min               =  -2.6057093376087E-01
(PID.TID 0000.0001) %MON obc_S_vVel_mean              =   3.2353436146989E-03
(PID.TID 0000.0001) %MON obc_S_vVel_sd                =   3.5953049695392E-02
(PID.TID 0000.0001) %MON obc_S_vVel_Int               =   9.8493241069708E+07
(PID.TID 0000.0001) %MON obc_N_theta_max              =   1.6390772942977E+01
(PID.TID 0000.0001) %MON obc_N_theta_min              =   1.8895907760510E+00
(PID.TID 0000.0001) %MON obc_N_theta_mean             =   5.1589731177388E+00
(PID.TID 0000.0001) %MON obc_N_theta_sd               =   3.4827246474693E+00
(PID.TID 0000.0001) %MON obc_S_theta_max              =   2.5544838560027E+01
(PID.TID 0000.0001) %MON obc_S_theta_min              =   1.4632960371739E+00
(PID.TID 0000.0001) %MON obc_S_theta_mean             =   5.4595569751869E+00
(PID.TID 0000.0001) %MON obc_S_theta_sd               =   5.3559331643597E+00
(PID.TID 0000.0001) %MON obc_N_salt_max               =   3.5910867239595E+01
(PID.TID 0000.0001) %MON obc_N_salt_min               =   3.3295019572678E+01
(PID.TID 0000.0001) %MON obc_N_salt_mean              =   3.5114564020364E+01
(PID.TID 0000.0001) %MON obc_N_salt_sd                =   3.0984921004648E-01
(PID.TID 0000.0001) %MON obc_S_salt_max               =   3.7318339746237E+01
(PID.TID 0000.0001) %MON obc_S_salt_min               =   3.4844694366037E+01
(PID.TID 0000.0001) %MON obc_S_salt_mean              =   3.5168372866918E+01
(PID.TID 0000.0001) %MON obc_S_salt_sd                =   4.5717075679099E-01
(PID.TID 0000.0001) // =======================================================
(PID.TID 0000.0001) // End OBCS MONITOR field statistics
(PID.TID 0000.0001) // =======================================================
(PID.TID 0000.0001) // =======================================================
(PID.TID 0000.0001) // Begin MONITOR EXF statistics
(PID.TID 0000.0001) // =======================================================
(PID.TID 0000.0001) %MON exf_tsnumber                 =                     1
(PID.TID 0000.0001) %MON exf_time_sec                 =   2.4000000000000E+02
(PID.TID 0000.0001) %MON exf_ustress_max              =   8.3759480285392E-01
(PID.TID 0000.0001) %MON exf_ustress_min              =  -4.2951705741892E-01
(PID.TID 0000.0001) %MON exf_ustress_mean             =   6.3102936876670E-02
(PID.TID 0000.0001) %MON exf_ustress_sd               =   1.5694019982088E-01
(PID.TID 0000.0001) %MON exf_ustress_del2             =   4.3590958716541E-07
(PID.TID 0000.0001) %MON exf_vstress_max              =   4.1921830187552E-01
(PID.TID 0000.0001) %MON exf_vstress_min              =  -5.7316950199962E-01
(PID.TID 0000.0001) %MON exf_vstress_mean             =   1.0709311388984E-02
(PID.TID 0000.0001) %MON exf_vstress_sd               =   1.0322208236415E-01
(PID.TID 0000.0001) %MON exf_vstress_del2             =   3.2651911731531E-07
(PID.TID 0000.0001) %MON exf_hflux_max                =   1.1414720951411E+03
(PID.TID 0000.0001) %MON exf_hflux_min                =  -2.5658171209593E+02
(PID.TID 0000.0001) %MON exf_hflux_mean               =   2.4534447398299E+02
(PID.TID 0000.0001) %MON exf_hflux_sd                 =   1.4399244932393E+02
(PID.TID 0000.0001) %MON exf_hflux_del2               =   1.1163489718985E-01
(PID.TID 0000.0001) %MON exf_sflux_max                =   2.6217825116876E-07
(PID.TID 0000.0001) %MON exf_sflux_min                =  -8.9634406318666E-07
(PID.TID 0000.0001) %MON exf_sflux_mean               =   1.1723730032159E-08
(PID.TID 0000.0001) %MON exf_sflux_sd                 =   9.9263125296681E-08
(PID.TID 0000.0001) %MON exf_sflux_del2               =   3.9326190987955E-11
(PID.TID 0000.0001) %MON exf_uwind_max                =   1.9545512733652E+01
(PID.TID 0000.0001) %MON exf_uwind_min                =  -1.5156313644782E+01
(PID.TID 0000.0001) %MON exf_uwind_mean               =   2.4665499327508E+00
(PID.TID 0000.0001) %MON exf_uwind_sd                 =   6.6942545392969E+00
(PID.TID 0000.0001) %MON exf_uwind_del2               =   2.8473596525112E-03
(PID.TID 0000.0001) %MON exf_vwind_max                =   1.4720252346849E+01
(PID.TID 0000.0001) %MON exf_vwind_min                =  -1.2837052602903E+01
(PID.TID 0000.0001) %MON exf_vwind_mean               =   8.4647551106842E-01
(PID.TID 0000.0001) %MON exf_vwind_sd                 =   5.2291548133030E+00
(PID.TID 0000.0001) %MON exf_vwind_del2               =   2.1043623526210E-03
(PID.TID 0000.0001) %MON exf_wspeed_max               =   2.0604158259496E+01
(PID.TID 0000.0001) %MON exf_wspeed_min               =   1.3974432024274E-02
(PID.TID 0000.0001) %MON exf_wspeed_mean              =   7.7556118364283E+00
(PID.TID 0000.0001) %MON exf_wspeed_sd                =   4.3368166092921E+00
(PID.TID 0000.0001) %MON exf_wspeed_del2              =   3.5402299614611E-03
(PID.TID 0000.0001) %MON exf_atemp_max                =   2.9817562687684E+02
(PID.TID 0000.0001) %MON exf_atemp_min                =   2.7452615746699E+02
(PID.TID 0000.0001) %MON exf_atemp_mean               =   2.9069902558728E+02
(PID.TID 0000.0001) %MON exf_atemp_sd                 =   3.9447514879437E+00
(PID.TID 0000.0001) %MON exf_atemp_del2               =   6.8485074445547E-03
(PID.TID 0000.0001) %MON exf_aqh_max                  =   1.6815489232455E-02
(PID.TID 0000.0001) %MON exf_aqh_min                  =   2.7377682347164E-03
(PID.TID 0000.0001) %MON exf_aqh_mean                 =   9.4275843487295E-03
(PID.TID 0000.0001) %MON exf_aqh_sd                   =   2.8734848400241E-03
(PID.TID 0000.0001) %MON exf_aqh_del2                 =   3.7530606925921E-06
(PID.TID 0000.0001) %MON exf_lwflux_max               =   1.5159279032158E+02
(PID.TID 0000.0001) %MON exf_lwflux_min               =   1.6653091575520E+01
(PID.TID 0000.0001) %MON exf_lwflux_mean              =   7.0480758893123E+01
(PID.TID 0000.0001) %MON exf_lwflux_sd                =   2.0882633182955E+01
(PID.TID 0000.0001) %MON exf_lwflux_del2              =   2.8253314539002E-02
(PID.TID 0000.0001) %MON exf_evap_max                 =   2.6944465543941E-07
(PID.TID 0000.0001) %MON exf_evap_min                 =  -9.1098221880535E-08
(PID.TID 0000.0001) %MON exf_evap_mean                =   5.9553212902751E-08
(PID.TID 0000.0001) %MON exf_evap_sd                  =   4.2383483755758E-08
(PID.TID 0000.0001) %MON exf_evap_del2                =   2.8693069700401E-11
(PID.TID 0000.0001) %MON exf_precip_max               =   1.0681274720082E-06
(PID.TID 0000.0001) %MON exf_precip_min               =   0.0000000000000E+00
(PID.TID 0000.0001) %MON exf_precip_mean              =   4.6241003465373E-08
(PID.TID 0000.0001) %MON exf_precip_sd                =   9.5180213938007E-08
(PID.TID 0000.0001) %MON exf_precip_del2              =   4.2339359514858E-11
(PID.TID 0000.0001) %MON exf_swflux_max               =   0.0000000000000E+00
(PID.TID 0000.0001) %MON exf_swflux_min               =   0.0000000000000E+00
(PID.TID 0000.0001) %MON exf_swflux_mean              =   0.0000000000000E+00
(PID.TID 0000.0001) %MON exf_swflux_sd                =   0.0000000000000E+00
(PID.TID 0000.0001) %MON exf_swflux_del2              =   0.0000000000000E+00
(PID.TID 0000.0001) %MON exf_swdown_max               =   0.0000000000000E+00
(PID.TID 0000.0001) %MON exf_swdown_min               =   0.0000000000000E+00
(PID.TID 0000.0001) %MON exf_swdown_mean              =   0.0000000000000E+00
(PID.TID 0000.0001) %MON exf_swdown_sd                =   0.0000000000000E+00
(PID.TID 0000.0001) %MON exf_swdown_del2              =   0.0000000000000E+00
(PID.TID 0000.0001) %MON exf_lwdown_max               =   3.9865640868250E+02
(PID.TID 0000.0001) %MON exf_lwdown_min               =   2.2781411885010E+02
(PID.TID 0000.0001) %MON exf_lwdown_mean              =   3.4445380950638E+02
(PID.TID 0000.0001) %MON exf_lwdown_sd                =   2.5672720097867E+01
(PID.TID 0000.0001) %MON exf_lwdown_del2              =   1.3319097134729E-01
(PID.TID 0000.0001) %MON exf_apressure_max            =   1.0278691686358E+05
(PID.TID 0000.0001) %MON exf_apressure_min            =   9.9978539078627E+04
(PID.TID 0000.0001) %MON exf_apressure_mean           =   1.0215985608694E+05
(PID.TID 0000.0001) %MON exf_apressure_sd             =   5.0058207786859E+02
(PID.TID 0000.0001) %MON exf_apressure_del2           =   3.9517565334831E+01
(PID.TID 0000.0001) %MON exf_runoff_max               =   4.4374791284855E-08
(PID.TID 0000.0001) %MON exf_runoff_min               =   0.0000000000000E+00
(PID.TID 0000.0001) %MON exf_runoff_mean              =   1.5884794052194E-09
(PID.TID 0000.0001) %MON exf_runoff_sd                =   5.3901957917178E-09
(PID.TID 0000.0001) %MON exf_runoff_del2              =   2.2191214937507E-12
(PID.TID 0000.0001) // =======================================================
(PID.TID 0000.0001) // End MONITOR EXF statistics
(PID.TID 0000.0001) // =======================================================
 cg2d: Sum(rhs),rhsMax =   1.42997555277774E+02  1.13484714319516E-01
(PID.TID 0000.0001)      cg2d_init_res =   1.40466369757153E+01
(PID.TID 0000.0001)      cg2d_iters(min,last) =      -1     323
(PID.TID 0000.0001)      cg2d_last_res =   7.00914587577577E-12
(PID.TID 0000.0001) // =======================================================
(PID.TID 0000.0001) // Begin MONITOR dynamic field statistics
(PID.TID 0000.0001) // =======================================================
(PID.TID 0000.0001) %MON time_tsnumber                =                     2
(PID.TID 0000.0001) %MON time_secondsf                =   4.8000000000000E+02
(PID.TID 0000.0001) %MON dynstat_eta_max              =   1.0107007980811E+00
(PID.TID 0000.0001) %MON dynstat_eta_min              =  -1.7651907587306E+00
(PID.TID 0000.0001) %MON dynstat_eta_mean             =  -4.8629323186363E-03
(PID.TID 0000.0001) %MON dynstat_eta_sd               =   1.0055248482392E-01
(PID.TID 0000.0001) %MON dynstat_eta_del2             =   3.4104164125512E-06
(PID.TID 0000.0001) %MON dynstat_uvel_max             =   1.2822075850154E+00
(PID.TID 0000.0001) %MON dynstat_uvel_min             =  -7.0565323790113E-01
(PID.TID 0000.0001) %MON dynstat_uvel_mean            =   3.7671032719069E-03
(PID.TID 0000.0001) %MON dynstat_uvel_sd              =   5.2261506985468E-02
(PID.TID 0000.0001) %MON dynstat_uvel_del2            =   4.6199094748838E-07
(PID.TID 0000.0001) %MON dynstat_vvel_max             =   1.7950877497668E+00
(PID.TID 0000.0001) %MON dynstat_vvel_min             =  -8.9318075584294E-01
(PID.TID 0000.0001) %MON dynstat_vvel_mean            =  -1.1549824467274E-03
(PID.TID 0000.0001) %MON dynstat_vvel_sd              =   4.8183604644965E-02
(PID.TID 0000.0001) %MON dynstat_vvel_del2            =   4.2925476627816E-07
(PID.TID 0000.0001) %MON dynstat_wvel_max             =   3.7564712950024E-02
(PID.TID 0000.0001) %MON dynstat_wvel_min             =  -3.2825828879108E-02
(PID.TID 0000.0001) %MON dynstat_wvel_mean            =  -5.2859398498465E-06
(PID.TID 0000.0001) %MON dynstat_wvel_sd              =   5.8621450456376E-04
(PID.TID 0000.0001) %MON dynstat_wvel_del2            =   9.0345340383762E-08
(PID.TID 0000.0001) %MON dynstat_theta_max            =   2.6141379173164E+01
(PID.TID 0000.0001) %MON dynstat_theta_min            =   1.4688637752429E+00
(PID.TID 0000.0001) %MON dynstat_theta_mean           =   5.5098655891916E+00
(PID.TID 0000.0001) %MON dynstat_theta_sd             =   4.7734801336106E+00
(PID.TID 0000.0001) %MON dynstat_theta_del2           =   4.0029861306219E-06
(PID.TID 0000.0001) %MON dynstat_salt_max             =   3.9182777431591E+01
(PID.TID 0000.0001) %MON dynstat_salt_min             =   3.3090728518825E+01
(PID.TID 0000.0001) %MON dynstat_salt_mean            =   3.5173371514532E+01
(PID.TID 0000.0001) %MON dynstat_salt_sd              =   3.7891419589945E-01
(PID.TID 0000.0001) %MON dynstat_salt_del2            =   4.9542516440212E-07
(PID.TID 0000.0001) %MON forcing_qnet_max             =   1.1590197282888E+03
(PID.TID 0000.0001) %MON forcing_qnet_min             =  -2.6187916850304E+02
(PID.TID 0000.0001) %MON forcing_qnet_mean            =   2.4696738435295E+02
(PID.TID 0000.0001) %MON forcing_qnet_sd              =   1.4699277149140E+02
(PID.TID 0000.0001) %MON forcing_qnet_del2            =   1.7023305106363E-03
(PID.TID 0000.0001) %MON forcing_qsw_max              =   0.0000000000000E+00
(PID.TID 0000.0001) %MON forcing_qsw_min              =   0.0000000000000E+00
(PID.TID 0000.0001) %MON forcing_qsw_mean             =   0.0000000000000E+00
(PID.TID 0000.0001) %MON forcing_qsw_sd               =   0.0000000000000E+00
(PID.TID 0000.0001) %MON forcing_qsw_del2             =   0.0000000000000E+00
(PID.TID 0000.0001) %MON forcing_empmr_max            =   2.6217825116876E-04
(PID.TID 0000.0001) %MON forcing_empmr_min            =  -8.9634406318666E-04
(PID.TID 0000.0001) %MON forcing_empmr_mean           =   1.1723730032159E-05
(PID.TID 0000.0001) %MON forcing_empmr_sd             =   9.9263125296681E-05
(PID.TID 0000.0001) %MON forcing_empmr_del2           =   2.4829961444674E-09
(PID.TID 0000.0001) %MON forcing_fu_max               =   8.3694945626904E-01
(PID.TID 0000.0001) %MON forcing_fu_min               =  -4.2948967418468E-01
(PID.TID 0000.0001) %MON forcing_fu_mean              =   6.3159397234157E-02
(PID.TID 0000.0001) %MON forcing_fu_sd                =   1.5699870309096E-01
(PID.TID 0000.0001) %MON forcing_fu_del2              =   3.9841609080596E-07
(PID.TID 0000.0001) %MON forcing_fv_max               =   4.1893636231132E-01
(PID.TID 0000.0001) %MON forcing_fv_min               =  -5.7505612068746E-01
(PID.TID 0000.0001) %MON forcing_fv_mean              =   1.0688768802037E-02
(PID.TID 0000.0001) %MON forcing_fv_sd                =   1.0335054679864E-01
(PID.TID 0000.0001) %MON forcing_fv_del2              =   3.0678712053182E-07
(PID.TID 0000.0001) %MON trAdv_CFL_u_max              =   7.7792512369624E-02
(PID.TID 0000.0001) %MON trAdv_CFL_v_max              =   1.1389643461155E-01
(PID.TID 0000.0001) %MON trAdv_CFL_w_max              =   5.1783483356954E-01
(PID.TID 0000.0001) %MON advcfl_uvel_max              =   7.7792511310409E-02
(PID.TID 0000.0001) %MON advcfl_vvel_max              =   1.1392992457867E-01
(PID.TID 0000.0001) %MON advcfl_wvel_max              =   5.1937143544957E-01
(PID.TID 0000.0001) %MON advcfl_W_hf_max              =   5.2091718376936E-01
(PID.TID 0000.0001) %MON pe_b_mean                    =  -1.0518882022132E-04
(PID.TID 0000.0001) %MON ke_max                       =   1.6163020745309E+00
(PID.TID 0000.0001) %MON ke_mean                      =   2.5154170627630E-03
(PID.TID 0000.0001) %MON ke_vol                       =   4.5818637279721E+16
(PID.TID 0000.0001) %MON vort_r_min                   =  -4.3273730591399E-04
(PID.TID 0000.0001) %MON vort_r_max                   =   4.2072850414899E-04
(PID.TID 0000.0001) %MON vort_a_mean                  =   8.2147637655608E-05
(PID.TID 0000.0001) %MON vort_a_sd                    =   1.0121570193747E-05
(PID.TID 0000.0001) %MON vort_p_mean                  =   8.4848859443742E-05
(PID.TID 0000.0001) %MON vort_p_sd                    =   3.4981696324539E-05
(PID.TID 0000.0001) %MON surfExpan_theta_mean         =  -7.6793469985930E-06
(PID.TID 0000.0001) %MON surfExpan_salt_mean          =  -3.6932228635848E-04
(PID.TID 0000.0001) // =======================================================
(PID.TID 0000.0001) // End MONITOR dynamic field statistics
(PID.TID 0000.0001) // =======================================================
(PID.TID 0000.0001) // =======================================================
(PID.TID 0000.0001) // Begin OBCS MONITOR field statistics
(PID.TID 0000.0001) // =======================================================
(PID.TID 0000.0001) %MON obc_N_vVel_max               =   6.9741914054719E-01
(PID.TID 0000.0001) %MON obc_N_vVel_min               =  -4.4853841987083E-01
(PID.TID 0000.0001) %MON obc_N_vVel_mean              =   1.4177796780956E-02
(PID.TID 0000.0001) %MON obc_N_vVel_sd                =   6.5436205807568E-02
(PID.TID 0000.0001) %MON obc_N_vVel_Int               =   2.0295635841398E+08
(PID.TID 0000.0001) %MON obc_S_vVel_max               =   1.5603234097317E+00
(PID.TID 0000.0001) %MON obc_S_vVel_min               =  -2.6067304036980E-01
(PID.TID 0000.0001) %MON obc_S_vVel_mean              =   2.5391891590991E-03
(PID.TID 0000.0001) %MON obc_S_vVel_sd                =   3.5960391627723E-02
(PID.TID 0000.0001) %MON obc_S_vVel_Int               =   7.7300280821024E+07
(PID.TID 0000.0001) %MON obc_N_theta_max              =   1.6390684840790E+01
(PID.TID 0000.0001) %MON obc_N_theta_min              =   1.8895908251163E+00
(PID.TID 0000.0001) %MON obc_N_theta_mean             =   5.1589657335888E+00
(PID.TID 0000.0001) %MON obc_N_theta_sd               =   3.4827153546990E+00
(PID.TID 0000.0001) %MON obc_S_theta_max              =   2.5544735811248E+01
(PID.TID 0000.0001) %MON obc_S_theta_min              =   1.4632964334612E+00
(PID.TID 0000.0001) %MON obc_S_theta_mean             =   5.4595561701623E+00
(PID.TID 0000.0001) %MON obc_S_theta_sd               =   5.3559292930331E+00
(PID.TID 0000.0001) %MON obc_N_salt_max               =   3.5910866831232E+01
(PID.TID 0000.0001) %MON obc_N_salt_min               =   3.3295025075312E+01
(PID.TID 0000.0001) %MON obc_N_salt_mean              =   3.5114563724377E+01
(PID.TID 0000.0001) %MON obc_N_salt_sd                =   3.0984909059289E-01
(PID.TID 0000.0001) %MON obc_S_salt_max               =   3.7318332861853E+01
(PID.TID 0000.0001) %MON obc_S_salt_min               =   3.4844694418258E+01
(PID.TID 0000.0001) %MON obc_S_salt_mean              =   3.5168372795001E+01
(PID.TID 0000.0001) %MON obc_S_salt_sd                =   4.5717040568239E-01
(PID.TID 0000.0001) // =======================================================
(PID.TID 0000.0001) // End OBCS MONITOR field statistics
(PID.TID 0000.0001) // =======================================================
(PID.TID 0000.0001) // =======================================================
(PID.TID 0000.0001) // Begin MONITOR EXF statistics
(PID.TID 0000.0001) // =======================================================
(PID.TID 0000.0001) %MON exf_tsnumber                 =                     2
(PID.TID 0000.0001) %MON exf_time_sec                 =   4.8000000000000E+02
(PID.TID 0000.0001) %MON exf_ustress_max              =   8.3601702455484E-01
(PID.TID 0000.0001) %MON exf_ustress_min              =  -4.2589836043150E-01
(PID.TID 0000.0001) %MON exf_ustress_mean             =   6.3015391754501E-02
(PID.TID 0000.0001) %MON exf_ustress_sd               =   1.5632353042379E-01
(PID.TID 0000.0001) %MON exf_ustress_del2             =   4.2112793790929E-07
(PID.TID 0000.0001) %MON exf_vstress_max              =   4.0929483281456E-01
(PID.TID 0000.0001) %MON exf_vstress_min              =  -5.7027176957695E-01
(PID.TID 0000.0001) %MON exf_vstress_mean             =   1.0672165727468E-02
(PID.TID 0000.0001) %MON exf_vstress_sd               =   1.0266015755849E-01
(PID.TID 0000.0001) %MON exf_vstress_del2             =   3.0566566741052E-07
(PID.TID 0000.0001) %MON exf_hflux_max                =   1.1410668542423E+03
(PID.TID 0000.0001) %MON exf_hflux_min                =  -2.6041266711746E+02
(PID.TID 0000.0001) %MON exf_hflux_mean               =   2.4435129748858E+02
(PID.TID 0000.0001) %MON exf_hflux_sd                 =   1.4316313053526E+02
(PID.TID 0000.0001) %MON exf_hflux_del2               =   1.1113428336066E-01
(PID.TID 0000.0001) %MON exf_sflux_max                =   2.6116478408965E-07
(PID.TID 0000.0001) %MON exf_sflux_min                =  -1.0214097399031E-06
(PID.TID 0000.0001) %MON exf_sflux_mean               =   1.2571778792948E-08
(PID.TID 0000.0001) %MON exf_sflux_sd                 =   1.0126711890021E-07
(PID.TID 0000.0001) %MON exf_sflux_del2               =   4.0286348836683E-11
(PID.TID 0000.0001) %MON exf_uwind_max                =   1.9542831465161E+01
(PID.TID 0000.0001) %MON exf_uwind_min                =  -1.5111952544320E+01
(PID.TID 0000.0001) %MON exf_uwind_mean               =   2.4675565339151E+00
(PID.TID 0000.0001) %MON exf_uwind_sd                 =   6.6870723008747E+00
(PID.TID 0000.0001) %MON exf_uwind_del2               =   2.8447741552761E-03
(PID.TID 0000.0001) %MON exf_vwind_max                =   1.4603683595029E+01
(PID.TID 0000.0001) %MON exf_vwind_min                =  -1.2819685188204E+01
(PID.TID 0000.0001) %MON exf_vwind_mean               =   8.4817752115175E-01
(PID.TID 0000.0001) %MON exf_vwind_sd                 =   5.2165299744230E+00
(PID.TID 0000.0001) %MON exf_vwind_del2               =   2.0997253875181E-03
(PID.TID 0000.0001) %MON exf_wspeed_max               =   2.0544864638063E+01
(PID.TID 0000.0001) %MON exf_wspeed_min               =   1.4208992096911E-02
(PID.TID 0000.0001) %MON exf_wspeed_mean              =   7.7450541493690E+00
(PID.TID 0000.0001) %MON exf_wspeed_sd                =   4.3302999330273E+00
(PID.TID 0000.0001) %MON exf_wspeed_del2              =   3.5354160095685E-03
(PID.TID 0000.0001) %MON exf_atemp_max                =   2.9817342958842E+02
(PID.TID 0000.0001) %MON exf_atemp_min                =   2.7450055625835E+02
(PID.TID 0000.0001) %MON exf_atemp_mean               =   2.9069590438109E+02
(PID.TID 0000.0001) %MON exf_atemp_sd                 =   3.9442154521307E+00
(PID.TID 0000.0001) %MON exf_atemp_del2               =   6.8472278878904E-03
(PID.TID 0000.0001) %MON exf_aqh_max                  =   1.6808502931582E-02
(PID.TID 0000.0001) %MON exf_aqh_min                  =   2.7354735369524E-03
(PID.TID 0000.0001) %MON exf_aqh_mean                 =   9.4263961959154E-03
(PID.TID 0000.0001) %MON exf_aqh_sd                   =   2.8729783809480E-03
(PID.TID 0000.0001) %MON exf_aqh_del2                 =   3.7524618969282E-06
(PID.TID 0000.0001) %MON exf_lwflux_max               =   1.5112484710508E+02
(PID.TID 0000.0001) %MON exf_lwflux_min               =   1.5989252233953E+01
(PID.TID 0000.0001) %MON exf_lwflux_mean              =   6.9700622655016E+01
(PID.TID 0000.0001) %MON exf_lwflux_sd                =   2.1124385832669E+01
(PID.TID 0000.0001) %MON exf_lwflux_del2              =   2.7984828103143E-02
(PID.TID 0000.0001) %MON exf_evap_max                 =   2.7064017835854E-07
(PID.TID 0000.0001) %MON exf_evap_min                 =  -9.1566379889142E-08
(PID.TID 0000.0001) %MON exf_evap_mean                =   5.9477395834692E-08
(PID.TID 0000.0001) %MON exf_evap_sd                  =   4.2284512612129E-08
(PID.TID 0000.0001) %MON exf_evap_del2                =   2.8649784776030E-11
(PID.TID 0000.0001) %MON exf_precip_max               =   1.1937895275386E-06
(PID.TID 0000.0001) %MON exf_precip_min               =   0.0000000000000E+00
(PID.TID 0000.0001) %MON exf_precip_mean              =   4.5317137636524E-08
(PID.TID 0000.0001) %MON exf_precip_sd                =   9.8966652401900E-08
(PID.TID 0000.0001) %MON exf_precip_del2              =   4.3705556140304E-11
(PID.TID 0000.0001) %MON exf_swflux_max               =   0.0000000000000E+00
(PID.TID 0000.0001) %MON exf_swflux_min               =   0.0000000000000E+00
(PID.TID 0000.0001) %MON exf_swflux_mean              =   0.0000000000000E+00
(PID.TID 0000.0001) %MON exf_swflux_sd                =   0.0000000000000E+00
(PID.TID 0000.0001) %MON exf_swflux_del2              =   0.0000000000000E+00
(PID.TID 0000.0001) %MON exf_swdown_max               =   0.0000000000000E+00
(PID.TID 0000.0001) %MON exf_swdown_min               =   0.0000000000000E+00
(PID.TID 0000.0001) %MON exf_swdown_mean              =   0.0000000000000E+00
(PID.TID 0000.0001) %MON exf_swdown_sd                =   0.0000000000000E+00
(PID.TID 0000.0001) %MON exf_swdown_del2              =   0.0000000000000E+00
(PID.TID 0000.0001) %MON exf_lwdown_max               =   3.9916214768056E+02
(PID.TID 0000.0001) %MON exf_lwdown_min               =   2.2827070729266E+02
(PID.TID 0000.0001) %MON exf_lwdown_mean              =   3.4524786348664E+02
(PID.TID 0000.0001) %MON exf_lwdown_sd                =   2.6075858085817E+01
(PID.TID 0000.0001) %MON exf_lwdown_del2              =   1.3351334749920E-01
(PID.TID 0000.0001) %MON exf_apressure_max            =   1.0278842789597E+05
(PID.TID 0000.0001) %MON exf_apressure_min            =   9.9983892237062E+04
(PID.TID 0000.0001) %MON exf_apressure_mean           =   1.0216063339349E+05
(PID.TID 0000.0001) %MON exf_apressure_sd             =   5.0022107601393E+02
(PID.TID 0000.0001) %MON exf_apressure_del2           =   3.9517872256091E+01
(PID.TID 0000.0001) %MON exf_runoff_max               =   4.4374791284855E-08
(PID.TID 0000.0001) %MON exf_runoff_min               =   0.0000000000000E+00
(PID.TID 0000.0001) %MON exf_runoff_mean              =   1.5884794052194E-09
(PID.TID 0000.0001) %MON exf_runoff_sd                =   5.3901957917178E-09
(PID.TID 0000.0001) %MON exf_runoff_del2              =   2.2191214937507E-12
(PID.TID 0000.0001) // =======================================================
(PID.TID 0000.0001) // End MONITOR EXF statistics
(PID.TID 0000.0001) // =======================================================
 cg2d: Sum(rhs),rhsMax =   2.35310838272709E+02  1.80689291162719E-01
(PID.TID 0000.0001)      cg2d_init_res =   3.24436288820067E+00
(PID.TID 0000.0001)      cg2d_iters(min,last) =      -1     320
(PID.TID 0000.0001)      cg2d_last_res =   6.68873378210083E-12
(PID.TID 0000.0001) // =======================================================
(PID.TID 0000.0001) // Begin MONITOR dynamic field statistics
(PID.TID 0000.0001) // =======================================================
(PID.TID 0000.0001) %MON time_tsnumber                =                     3
(PID.TID 0000.0001) %MON time_secondsf                =   7.2000000000000E+02
(PID.TID 0000.0001) %MON dynstat_eta_max              =   1.0993339058125E+00
(PID.TID 0000.0001) %MON dynstat_eta_min              =  -1.7328103713487E+00
(PID.TID 0000.0001) %MON dynstat_eta_mean             =  -8.0022394658351E-03
(PID.TID 0000.0001) %MON dynstat_eta_sd               =   1.3005440921281E-01
(PID.TID 0000.0001) %MON dynstat_eta_del2             =   2.9189828156669E-06
(PID.TID 0000.0001) %MON dynstat_uvel_max             =   1.2896873845246E+00
(PID.TID 0000.0001) %MON dynstat_uvel_min             =  -8.7059525119518E-01
(PID.TID 0000.0001) %MON dynstat_uvel_mean            =   3.6527345469036E-03
(PID.TID 0000.0001) %MON dynstat_uvel_sd              =   5.2335537212314E-02
(PID.TID 0000.0001) %MON dynstat_uvel_del2            =   4.6350324985992E-07
(PID.TID 0000.0001) %MON dynstat_vvel_max             =   1.8027606143952E+00
(PID.TID 0000.0001) %MON dynstat_vvel_min             =  -8.9822822614782E-01
(PID.TID 0000.0001) %MON dynstat_vvel_mean            =  -1.5954410599237E-03
(PID.TID 0000.0001) %MON dynstat_vvel_sd              =   4.8241305873099E-02
(PID.TID 0000.0001) %MON dynstat_vvel_del2            =   4.2617607720815E-07
(PID.TID 0000.0001) %MON dynstat_wvel_max             =   3.7202169607483E-02
(PID.TID 0000.0001) %MON dynstat_wvel_min             =  -3.2622598053570E-02
(PID.TID 0000.0001) %MON dynstat_wvel_mean            =  -6.4931844058501E-06
(PID.TID 0000.0001) %MON dynstat_wvel_sd              =   5.9052540021069E-04
(PID.TID 0000.0001) %MON dynstat_wvel_del2            =   8.9195082937821E-08
(PID.TID 0000.0001) %MON dynstat_theta_max            =   2.6141071858296E+01
(PID.TID 0000.0001) %MON dynstat_theta_min            =   1.4688638760076E+00
(PID.TID 0000.0001) %MON dynstat_theta_mean           =   5.5098594560835E+00
(PID.TID 0000.0001) %MON dynstat_theta_sd             =   4.7734533874210E+00
(PID.TID 0000.0001) %MON dynstat_theta_del2           =   4.0012394336956E-06
(PID.TID 0000.0001) %MON dynstat_salt_max             =   3.9180974990976E+01
(PID.TID 0000.0001) %MON dynstat_salt_min             =   3.3091329978499E+01
(PID.TID 0000.0001) %MON dynstat_salt_mean            =   3.5173370205536E+01
(PID.TID 0000.0001) %MON dynstat_salt_sd              =   3.7891272199226E-01
(PID.TID 0000.0001) %MON dynstat_salt_del2            =   4.9687817388565E-07
(PID.TID 0000.0001) %MON forcing_qnet_max             =   1.1587133170462E+03
(PID.TID 0000.0001) %MON forcing_qnet_min             =  -2.6561452659029E+02
(PID.TID 0000.0001) %MON forcing_qnet_mean            =   2.4605043361931E+02
(PID.TID 0000.0001) %MON forcing_qnet_sd              =   1.4593277592028E+02
(PID.TID 0000.0001) %MON forcing_qnet_del2            =   1.6903721410019E-03
(PID.TID 0000.0001) %MON forcing_qsw_max              =   0.0000000000000E+00
(PID.TID 0000.0001) %MON forcing_qsw_min              =   0.0000000000000E+00
(PID.TID 0000.0001) %MON forcing_qsw_mean             =   0.0000000000000E+00
(PID.TID 0000.0001) %MON forcing_qsw_sd               =   0.0000000000000E+00
(PID.TID 0000.0001) %MON forcing_qsw_del2             =   0.0000000000000E+00
(PID.TID 0000.0001) %MON forcing_empmr_max            =   2.6116478408965E-04
(PID.TID 0000.0001) %MON forcing_empmr_min            =  -1.0214097399031E-03
(PID.TID 0000.0001) %MON forcing_empmr_mean           =   1.2571778792948E-05
(PID.TID 0000.0001) %MON forcing_empmr_sd             =   1.0126711890021E-04
(PID.TID 0000.0001) %MON forcing_empmr_del2           =   2.5459055078021E-09
(PID.TID 0000.0001) %MON forcing_fu_max               =   8.3479423378484E-01
(PID.TID 0000.0001) %MON forcing_fu_min               =  -4.2582593397888E-01
(PID.TID 0000.0001) %MON forcing_fu_mean              =   6.3072173900343E-02
(PID.TID 0000.0001) %MON forcing_fu_sd                =   1.5638227706758E-01
(PID.TID 0000.0001) %MON forcing_fu_del2              =   3.8095684633057E-07
(PID.TID 0000.0001) %MON forcing_fv_max               =   4.0884757666233E-01
(PID.TID 0000.0001) %MON forcing_fv_min               =  -5.7261618947579E-01
(PID.TID 0000.0001) %MON forcing_fv_mean              =   1.0651875081825E-02
(PID.TID 0000.0001) %MON forcing_fv_sd                =   1.0278945989481E-01
(PID.TID 0000.0001) %MON forcing_fv_del2              =   2.8577289517251E-07
(PID.TID 0000.0001) %MON trAdv_CFL_u_max              =   7.8246317512133E-02
(PID.TID 0000.0001) %MON trAdv_CFL_v_max              =   1.1438326982311E-01
(PID.TID 0000.0001) %MON trAdv_CFL_w_max              =   5.0132325856527E-01
(PID.TID 0000.0001) %MON advcfl_uvel_max              =   7.8246316446739E-02
(PID.TID 0000.0001) %MON advcfl_vvel_max              =   1.1441690293866E-01
(PID.TID 0000.0001) %MON advcfl_wvel_max              =   5.0281086467377E-01
(PID.TID 0000.0001) %MON advcfl_W_hf_max              =   5.0430732558054E-01
(PID.TID 0000.0001) %MON pe_b_mean                    =  -1.7291291625559E-04
(PID.TID 0000.0001) %MON ke_max                       =   1.6298635719700E+00
(PID.TID 0000.0001) %MON ke_mean                      =   2.5222086101361E-03
(PID.TID 0000.0001) %MON ke_vol                       =   4.5818637279721E+16
(PID.TID 0000.0001) %MON vort_r_min                   =  -4.7342535305233E-04
(PID.TID 0000.0001) %MON vort_r_max                   =   4.3639351550390E-04
(PID.TID 0000.0001) %MON vort_a_mean                  =   8.2147637035054E-05
(PID.TID 0000.0001) %MON vort_a_sd                    =   1.0122571692062E-05
(PID.TID 0000.0001) %MON vort_p_mean                  =   8.4848858802783E-05
(PID.TID 0000.0001) %MON vort_p_sd                    =   3.4977709388877E-05
(PID.TID 0000.0001) %MON surfExpan_theta_mean         =  -4.2652062999082E-05
(PID.TID 0000.0001) %MON surfExpan_salt_mean          =  -4.4151260636928E-04
(PID.TID 0000.0001) // =======================================================
(PID.TID 0000.0001) // End MONITOR dynamic field statistics
(PID.TID 0000.0001) // =======================================================
(PID.TID 0000.0001) // =======================================================
(PID.TID 0000.0001) // Begin OBCS MONITOR field statistics
(PID.TID 0000.0001) // =======================================================
(PID.TID 0000.0001) %MON obc_N_vVel_max               =   6.9738359007036E-01
(PID.TID 0000.0001) %MON obc_N_vVel_min               =  -4.4987332519590E-01
(PID.TID 0000.0001) %MON obc_N_vVel_mean              =   1.4241751423345E-02
(PID.TID 0000.0001) %MON obc_N_vVel_sd                =   6.5419377244438E-02
(PID.TID 0000.0001) %MON obc_N_vVel_Int               =   2.0387187452155E+08
(PID.TID 0000.0001) %MON obc_S_vVel_max               =   1.5613580765005E+00
(PID.TID 0000.0001) %MON obc_S_vVel_min               =  -2.6077071235908E-01
(PID.TID 0000.0001) %MON obc_S_vVel_mean              =   1.8409440772747E-03
(PID.TID 0000.0001) %MON obc_S_vVel_sd                =   3.5970913488760E-02
(PID.TID 0000.0001) %MON obc_S_vVel_Int               =   5.6043675847933E+07
(PID.TID 0000.0001) %MON obc_N_theta_max              =   1.6390596738603E+01
(PID.TID 0000.0001) %MON obc_N_theta_min              =   1.8895908741817E+00
(PID.TID 0000.0001) %MON obc_N_theta_mean             =   5.1589583494387E+00
(PID.TID 0000.0001) %MON obc_N_theta_sd               =   3.4827060621667E+00
(PID.TID 0000.0001) %MON obc_S_theta_max              =   2.5544633062468E+01
(PID.TID 0000.0001) %MON obc_S_theta_min              =   1.4632968297484E+00
(PID.TID 0000.0001) %MON obc_S_theta_mean             =   5.4595553651377E+00
(PID.TID 0000.0001) %MON obc_S_theta_sd               =   5.3559254217423E+00
(PID.TID 0000.0001) %MON obc_N_salt_max               =   3.5910866422869E+01
(PID.TID 0000.0001) %MON obc_N_salt_min               =   3.3295030577945E+01
(PID.TID 0000.0001) %MON obc_N_salt_mean              =   3.5114563428390E+01
(PID.TID 0000.0001) %MON obc_N_salt_sd                =   3.0984897117919E-01
(PID.TID 0000.0001) %MON obc_S_salt_max               =   3.7318325977469E+01
(PID.TID 0000.0001) %MON obc_S_salt_min               =   3.4844694470478E+01
(PID.TID 0000.0001) %MON obc_S_salt_mean              =   3.5168372723085E+01
(PID.TID 0000.0001) %MON obc_S_salt_sd                =   4.5717005458027E-01
(PID.TID 0000.0001) // =======================================================
(PID.TID 0000.0001) // End OBCS MONITOR field statistics
(PID.TID 0000.0001) // =======================================================
(PID.TID 0000.0001) // =======================================================
(PID.TID 0000.0001) // Begin MONITOR EXF statistics
(PID.TID 0000.0001) // =======================================================
(PID.TID 0000.0001) %MON exf_tsnumber                 =                     3
(PID.TID 0000.0001) %MON exf_time_sec                 =   7.2000000000000E+02
(PID.TID 0000.0001) %MON exf_ustress_max              =   8.3361606730485E-01
(PID.TID 0000.0001) %MON exf_ustress_min              =  -4.2260956718210E-01
(PID.TID 0000.0001) %MON exf_ustress_mean             =   6.2969348424170E-02
(PID.TID 0000.0001) %MON exf_ustress_sd               =   1.5583983036806E-01
(PID.TID 0000.0001) %MON exf_ustress_del2             =   4.0539228058114E-07
(PID.TID 0000.0001) %MON exf_vstress_max              =   4.0176371221561E-01
(PID.TID 0000.0001) %MON exf_vstress_min              =  -5.6780590154742E-01
(PID.TID 0000.0001) %MON exf_vstress_mean             =   1.0652923278656E-02
(PID.TID 0000.0001) %MON exf_vstress_sd               =   1.0222147347781E-01
(PID.TID 0000.0001) %MON exf_vstress_del2             =   2.8882155675472E-07
(PID.TID 0000.0001) %MON exf_hflux_max                =   1.1411873768984E+03
(PID.TID 0000.0001) %MON exf_hflux_min                =  -2.6436220170309E+02
(PID.TID 0000.0001) %MON exf_hflux_mean               =   2.4340568019788E+02
(PID.TID 0000.0001) %MON exf_hflux_sd                 =   1.4243590154350E+02
(PID.TID 0000.0001) %MON exf_hflux_del2               =   1.1066978988330E-01
(PID.TID 0000.0001) %MON exf_sflux_max                =   2.6023325206334E-07
(PID.TID 0000.0001) %MON exf_sflux_min                =  -1.1464376621069E-06
(PID.TID 0000.0001) %MON exf_sflux_mean               =   1.3434271626698E-08
(PID.TID 0000.0001) %MON exf_sflux_sd                 =   1.0476682502659E-07
(PID.TID 0000.0001) %MON exf_sflux_del2               =   4.1841266020273E-11
(PID.TID 0000.0001) %MON exf_uwind_max                =   1.9534269792468E+01
(PID.TID 0000.0001) %MON exf_uwind_min                =  -1.5072477437885E+01
(PID.TID 0000.0001) %MON exf_uwind_mean               =   2.4688622160901E+00
(PID.TID 0000.0001) %MON exf_uwind_sd                 =   6.6812223562789E+00
(PID.TID 0000.0001) %MON exf_uwind_del2               =   2.8427310420813E-03
(PID.TID 0000.0001) %MON exf_vwind_max                =   1.4512219059209E+01
(PID.TID 0000.0001) %MON exf_vwind_min                =  -1.2804663982517E+01
(PID.TID 0000.0001) %MON exf_vwind_mean               =   8.4990088716964E-01
(PID.TID 0000.0001) %MON exf_vwind_sd                 =   5.2057778914099E+00
(PID.TID 0000.0001) %MON exf_vwind_del2               =   2.0958222077633E-03
(PID.TID 0000.0001) %MON exf_wspeed_max               =   2.0490706181874E+01
(PID.TID 0000.0001) %MON exf_wspeed_min               =   3.7868241948014E-03
(PID.TID 0000.0001) %MON exf_wspeed_mean              =   7.7361056818514E+00
(PID.TID 0000.0001) %MON exf_wspeed_sd                =   4.3254059541283E+00
(PID.TID 0000.0001) %MON exf_wspeed_del2              =   3.5314731311205E-03
(PID.TID 0000.0001) %MON exf_atemp_max                =   2.9817123230001E+02
(PID.TID 0000.0001) %MON exf_atemp_min                =   2.7447495504971E+02
(PID.TID 0000.0001) %MON exf_atemp_mean               =   2.9069278317489E+02
(PID.TID 0000.0001) %MON exf_atemp_sd                 =   3.9438218287336E+00
(PID.TID 0000.0001) %MON exf_atemp_del2               =   6.8459620303780E-03
(PID.TID 0000.0001) %MON exf_aqh_max                  =   1.6801516630708E-02
(PID.TID 0000.0001) %MON exf_aqh_min                  =   2.7331788391884E-03
(PID.TID 0000.0001) %MON exf_aqh_mean                 =   9.4252080431013E-03
(PID.TID 0000.0001) %MON exf_aqh_sd                   =   2.8726446397291E-03
(PID.TID 0000.0001) %MON exf_aqh_del2                 =   3.7518848476227E-06
(PID.TID 0000.0001) %MON exf_lwflux_max               =   1.5079980655886E+02
(PID.TID 0000.0001) %MON exf_lwflux_min               =   1.3832298760513E+01
(PID.TID 0000.0001) %MON exf_lwflux_mean              =   6.8922174299456E+01
(PID.TID 0000.0001) %MON exf_lwflux_sd                =   2.1648886366908E+01
(PID.TID 0000.0001) %MON exf_lwflux_del2              =   2.7751738250094E-02
(PID.TID 0000.0001) %MON exf_evap_max                 =   2.7197381851473E-07
(PID.TID 0000.0001) %MON exf_evap_min                 =  -9.2066859470775E-08
(PID.TID 0000.0001) %MON exf_evap_mean                =   5.9416022839593E-08
(PID.TID 0000.0001) %MON exf_evap_sd                  =   4.2205988178436E-08
(PID.TID 0000.0001) %MON exf_evap_del2                =   2.8616131931675E-11
(PID.TID 0000.0001) %MON exf_precip_max               =   1.3194515830690E-06
(PID.TID 0000.0001) %MON exf_precip_min               =   0.0000000000000E+00
(PID.TID 0000.0001) %MON exf_precip_mean              =   4.4393271807676E-08
(PID.TID 0000.0001) %MON exf_precip_sd                =   1.0414728851172E-07
(PID.TID 0000.0001) %MON exf_precip_del2              =   4.5592101186006E-11
(PID.TID 0000.0001) %MON exf_swflux_max               =   0.0000000000000E+00
(PID.TID 0000.0001) %MON exf_swflux_min               =   0.0000000000000E+00
(PID.TID 0000.0001) %MON exf_swflux_mean              =   0.0000000000000E+00
(PID.TID 0000.0001) %MON exf_swflux_sd                =   0.0000000000000E+00
(PID.TID 0000.0001) %MON exf_swflux_del2              =   0.0000000000000E+00
(PID.TID 0000.0001) %MON exf_swdown_max               =   0.0000000000000E+00
(PID.TID 0000.0001) %MON exf_swdown_min               =   0.0000000000000E+00
(PID.TID 0000.0001) %MON exf_swdown_mean              =   0.0000000000000E+00
(PID.TID 0000.0001) %MON exf_swdown_sd                =   0.0000000000000E+00
(PID.TID 0000.0001) %MON exf_swdown_del2              =   0.0000000000000E+00
(PID.TID 0000.0001) %MON exf_lwdown_max               =   3.9966788667862E+02
(PID.TID 0000.0001) %MON exf_lwdown_min               =   2.2872729573522E+02
(PID.TID 0000.0001) %MON exf_lwdown_mean              =   3.4604191746690E+02
(PID.TID 0000.0001) %MON exf_lwdown_sd                =   2.6718022331913E+01
(PID.TID 0000.0001) %MON exf_lwdown_del2              =   1.3384315481687E-01
(PID.TID 0000.0001) %MON exf_apressure_max            =   1.0278993892836E+05
(PID.TID 0000.0001) %MON exf_apressure_min            =   9.9988779524667E+04
(PID.TID 0000.0001) %MON exf_apressure_mean           =   1.0216141070004E+05
(PID.TID 0000.0001) %MON exf_apressure_sd             =   4.9989954915976E+02
(PID.TID 0000.0001) %MON exf_apressure_del2           =   3.9518179258773E+01
(PID.TID 0000.0001) %MON exf_runoff_max               =   4.4374791284855E-08
(PID.TID 0000.0001) %MON exf_runoff_min               =   0.0000000000000E+00
(PID.TID 0000.0001) %MON exf_runoff_mean              =   1.5884794052194E-09
(PID.TID 0000.0001) %MON exf_runoff_sd                =   5.3901957917178E-09
(PID.TID 0000.0001) %MON exf_runoff_del2              =   2.2191214937507E-12
(PID.TID 0000.0001) // =======================================================
(PID.TID 0000.0001) // End MONITOR EXF statistics
(PID.TID 0000.0001) // =======================================================
 cg2d: Sum(rhs),rhsMax =   3.41361430054412E+02  2.33359207260214E-01
(PID.TID 0000.0001)      cg2d_init_res =   2.17525783711639E+00
(PID.TID 0000.0001)      cg2d_iters(min,last) =      -1     317
(PID.TID 0000.0001)      cg2d_last_res =   6.98261401260926E-12
(PID.TID 0000.0001) // =======================================================
(PID.TID 0000.0001) // Begin MONITOR dynamic field statistics
(PID.TID 0000.0001) // =======================================================
(PID.TID 0000.0001) %MON time_tsnumber                =                     4
(PID.TID 0000.0001) %MON time_secondsf                =   9.6000000000000E+02
(PID.TID 0000.0001) %MON dynstat_eta_max              =   1.1731366607724E+00
(PID.TID 0000.0001) %MON dynstat_eta_min              =  -1.6568174765773E+00
(PID.TID 0000.0001) %MON dynstat_eta_mean             =  -1.1608712661716E-02
(PID.TID 0000.0001) %MON dynstat_eta_sd               =   1.5474677819874E-01
(PID.TID 0000.0001) %MON dynstat_eta_del2             =   2.7764513000182E-06
(PID.TID 0000.0001) %MON dynstat_uvel_max             =   1.2944593141174E+00
(PID.TID 0000.0001) %MON dynstat_uvel_min             =  -9.9056963482769E-01
(PID.TID 0000.0001) %MON dynstat_uvel_mean            =   3.5053098931450E-03
(PID.TID 0000.0001) %MON dynstat_uvel_sd              =   5.2378499090723E-02
(PID.TID 0000.0001) %MON dynstat_uvel_del2            =   4.6653824141272E-07
(PID.TID 0000.0001) %MON dynstat_vvel_max             =   1.8108938610174E+00
(PID.TID 0000.0001) %MON dynstat_vvel_min             =  -9.0270701914339E-01
(PID.TID 0000.0001) %MON dynstat_vvel_mean            =  -1.9999616282413E-03
(PID.TID 0000.0001) %MON dynstat_vvel_sd              =   4.8342239828816E-02
(PID.TID 0000.0001) %MON dynstat_vvel_del2            =   4.2648503999521E-07
(PID.TID 0000.0001) %MON dynstat_wvel_max             =   3.7214859298770E-02
(PID.TID 0000.0001) %MON dynstat_wvel_min             =  -3.1709119069045E-02
(PID.TID 0000.0001) %MON dynstat_wvel_mean            =  -7.6926374748133E-06
(PID.TID 0000.0001) %MON dynstat_wvel_sd              =   5.8977806348225E-04
(PID.TID 0000.0001) %MON dynstat_wvel_del2            =   8.5649882562893E-08
(PID.TID 0000.0001) %MON dynstat_theta_max            =   2.6140709682914E+01
(PID.TID 0000.0001) %MON dynstat_theta_min            =   1.4688639854270E+00
(PID.TID 0000.0001) %MON dynstat_theta_mean           =   5.5098550962967E+00
(PID.TID 0000.0001) %MON dynstat_theta_sd             =   4.7734292117249E+00
(PID.TID 0000.0001) %MON dynstat_theta_del2           =   4.0029593963671E-06
(PID.TID 0000.0001) %MON dynstat_salt_max             =   3.9178855507265E+01
(PID.TID 0000.0001) %MON dynstat_salt_min             =   3.3091985214796E+01
(PID.TID 0000.0001) %MON dynstat_salt_mean            =   3.5173369104635E+01
(PID.TID 0000.0001) %MON dynstat_salt_sd              =   3.7891174094758E-01
(PID.TID 0000.0001) %MON dynstat_salt_del2            =   4.9937251215384E-07
(PID.TID 0000.0001) %MON forcing_qnet_max             =   1.1589434456777E+03
(PID.TID 0000.0001) %MON forcing_qnet_min             =  -2.6946988913244E+02
(PID.TID 0000.0001) %MON forcing_qnet_mean            =   2.4518254525037E+02
(PID.TID 0000.0001) %MON forcing_qnet_sd              =   1.4498905752912E+02
(PID.TID 0000.0001) %MON forcing_qnet_del2            =   1.6838941160867E-03
(PID.TID 0000.0001) %MON forcing_qsw_max              =   0.0000000000000E+00
(PID.TID 0000.0001) %MON forcing_qsw_min              =   0.0000000000000E+00
(PID.TID 0000.0001) %MON forcing_qsw_mean             =   0.0000000000000E+00
(PID.TID 0000.0001) %MON forcing_qsw_sd               =   0.0000000000000E+00
(PID.TID 0000.0001) %MON forcing_qsw_del2             =   0.0000000000000E+00
(PID.TID 0000.0001) %MON forcing_empmr_max            =   2.6023325206334E-04
(PID.TID 0000.0001) %MON forcing_empmr_min            =  -1.1464376621069E-03
(PID.TID 0000.0001) %MON forcing_empmr_mean           =   1.3434271626698E-05
(PID.TID 0000.0001) %MON forcing_empmr_sd             =   1.0476682502659E-04
(PID.TID 0000.0001) %MON forcing_empmr_del2           =   2.6475045038443E-09
(PID.TID 0000.0001) %MON forcing_fu_max               =   8.3206691956514E-01
(PID.TID 0000.0001) %MON forcing_fu_min               =  -4.2250952376323E-01
(PID.TID 0000.0001) %MON forcing_fu_mean              =   6.3026483856302E-02
(PID.TID 0000.0001) %MON forcing_fu_sd                =   1.5589881391664E-01
(PID.TID 0000.0001) %MON forcing_fu_del2              =   3.6422342340320E-07
(PID.TID 0000.0001) %MON forcing_fv_max               =   4.0130791725929E-01
(PID.TID 0000.0001) %MON forcing_fv_min               =  -5.7050648450382E-01
(PID.TID 0000.0001) %MON forcing_fv_mean              =   1.0632897704988E-02
(PID.TID 0000.0001) %MON forcing_fv_sd                =   1.0235144034571E-01
(PID.TID 0000.0001) %MON forcing_fv_del2              =   2.6898204903387E-07
(PID.TID 0000.0001) %MON trAdv_CFL_u_max              =   7.8535834120995E-02
(PID.TID 0000.0001) %MON trAdv_CFL_v_max              =   1.1489931578922E-01
(PID.TID 0000.0001) %MON trAdv_CFL_w_max              =   4.8279734649044E-01
(PID.TID 0000.0001) %MON advcfl_uvel_max              =   7.8535833051659E-02
(PID.TID 0000.0001) %MON advcfl_vvel_max              =   1.1493310064229E-01
(PID.TID 0000.0001) %MON advcfl_wvel_max              =   4.8422997956608E-01
(PID.TID 0000.0001) %MON advcfl_W_hf_max              =   4.8567114021955E-01
(PID.TID 0000.0001) %MON pe_b_mean                    =  -2.5173952807826E-04
(PID.TID 0000.0001) %MON ke_max                       =   1.6444305554877E+00
(PID.TID 0000.0001) %MON ke_mean                      =   2.5294887968281E-03
(PID.TID 0000.0001) %MON ke_vol                       =   4.5818637279721E+16
(PID.TID 0000.0001) %MON vort_r_min                   =  -4.9728344206997E-04
(PID.TID 0000.0001) %MON vort_r_max                   =   4.5243519336321E-04
(PID.TID 0000.0001) %MON vort_a_mean                  =   8.2147636399866E-05
(PID.TID 0000.0001) %MON vort_a_sd                    =   1.0124092455130E-05
(PID.TID 0000.0001) %MON vort_p_mean                  =   8.4848858146708E-05
(PID.TID 0000.0001) %MON vort_p_sd                    =   3.4974415237004E-05
(PID.TID 0000.0001) %MON surfExpan_theta_mean         =  -8.3159282458024E-05
(PID.TID 0000.0001) %MON surfExpan_salt_mean          =  -5.1354745829351E-04
(PID.TID 0000.0001) // =======================================================
(PID.TID 0000.0001) // End MONITOR dynamic field statistics
(PID.TID 0000.0001) // =======================================================
(PID.TID 0000.0001) // =======================================================
(PID.TID 0000.0001) // Begin OBCS MONITOR field statistics
(PID.TID 0000.0001) // =======================================================
(PID.TID 0000.0001) %MON obc_N_vVel_max               =   6.9732794611862E-01
(PID.TID 0000.0001) %MON obc_N_vVel_min               =  -4.5097739402461E-01
(PID.TID 0000.0001) %MON obc_N_vVel_mean              =   1.4290908434494E-02
(PID.TID 0000.0001) %MON obc_N_vVel_sd                =   6.5399426231568E-02
(PID.TID 0000.0001) %MON obc_N_vVel_Int               =   2.0457556128808E+08
(PID.TID 0000.0001) %MON obc_S_vVel_max               =   1.5624232013123E+00
(PID.TID 0000.0001) %MON obc_S_vVel_min               =  -2.6086371012214E-01
(PID.TID 0000.0001) %MON obc_S_vVel_mean              =   1.1414411202518E-03
(PID.TID 0000.0001) %MON obc_S_vVel_sd                =   3.5984775031453E-02
(PID.TID 0000.0001) %MON obc_S_vVel_Int               =   3.4748777506373E+07
(PID.TID 0000.0001) %MON obc_N_theta_max              =   1.6390508636415E+01
(PID.TID 0000.0001) %MON obc_N_theta_min              =   1.8895909232471E+00
(PID.TID 0000.0001) %MON obc_N_theta_mean             =   5.1589509652887E+00
(PID.TID 0000.0001) %MON obc_N_theta_sd               =   3.4826967698724E+00
(PID.TID 0000.0001) %MON obc_S_theta_max              =   2.5544530313689E+01
(PID.TID 0000.0001) %MON obc_S_theta_min              =   1.4632972260357E+00
(PID.TID 0000.0001) %MON obc_S_theta_mean             =   5.4595545601131E+00
(PID.TID 0000.0001) %MON obc_S_theta_sd               =   5.3559215504875E+00
(PID.TID 0000.0001) %MON obc_N_salt_max               =   3.5910866014505E+01
(PID.TID 0000.0001) %MON obc_N_salt_min               =   3.3295036080578E+01
(PID.TID 0000.0001) %MON obc_N_salt_mean              =   3.5114563132404E+01
(PID.TID 0000.0001) %MON obc_N_salt_sd                =   3.0984885180316E-01
(PID.TID 0000.0001) %MON obc_S_salt_max               =   3.7318319093085E+01
(PID.TID 0000.0001) %MON obc_S_salt_min               =   3.4844694522698E+01
(PID.TID 0000.0001) %MON obc_S_salt_mean              =   3.5168372651168E+01
(PID.TID 0000.0001) %MON obc_S_salt_sd                =   4.5716970348508E-01
(PID.TID 0000.0001) // =======================================================
(PID.TID 0000.0001) // End OBCS MONITOR field statistics
(PID.TID 0000.0001) // =======================================================
(PID.TID 0000.0001) // =======================================================
(PID.TID 0000.0001) // Begin MONITOR EXF statistics
(PID.TID 0000.0001) // =======================================================
(PID.TID 0000.0001) %MON exf_tsnumber                 =                     4
(PID.TID 0000.0001) %MON exf_time_sec                 =   9.6000000000000E+02
(PID.TID 0000.0001) %MON exf_ustress_max              =   8.3202846241134E-01
(PID.TID 0000.0001) %MON exf_ustress_min              =  -4.1946809541836E-01
(PID.TID 0000.0001) %MON exf_ustress_mean             =   6.2958097545691E-02
(PID.TID 0000.0001) %MON exf_ustress_sd               =   1.5546669038200E-01
(PID.TID 0000.0001) %MON exf_ustress_del2             =   3.9334547077528E-07
(PID.TID 0000.0001) %MON exf_vstress_max              =   3.9654894673154E-01
(PID.TID 0000.0001) %MON exf_vstress_min              =  -5.6582351202664E-01
(PID.TID 0000.0001) %MON exf_vstress_mean             =   1.0650097596668E-02
(PID.TID 0000.0001) %MON exf_vstress_sd               =   1.0188819405313E-01
(PID.TID 0000.0001) %MON exf_vstress_del2             =   2.7653556874766E-07
(PID.TID 0000.0001) %MON exf_hflux_max                =   1.1440346786438E+03
(PID.TID 0000.0001) %MON exf_hflux_min                =  -2.6846813836226E+02
(PID.TID 0000.0001) %MON exf_hflux_mean               =   2.4249729259103E+02
(PID.TID 0000.0001) %MON exf_hflux_sd                 =   1.4179840140206E+02
(PID.TID 0000.0001) %MON exf_hflux_del2               =   1.1023792851439E-01
(PID.TID 0000.0001) %MON exf_sflux_max                =   2.5934646499170E-07
(PID.TID 0000.0001) %MON exf_sflux_min                =  -1.2714458046269E-06
(PID.TID 0000.0001) %MON exf_sflux_mean               =   1.4308454048701E-08
(PID.TID 0000.0001) %MON exf_sflux_sd                 =   1.0961731771552E-07
(PID.TID 0000.0001) %MON exf_sflux_del2               =   4.3927085700362E-11
(PID.TID 0000.0001) %MON exf_uwind_max                =   1.9533504432671E+01
(PID.TID 0000.0001) %MON exf_uwind_min                =  -1.5034848253560E+01
(PID.TID 0000.0001) %MON exf_uwind_mean               =   2.4703580463085E+00
(PID.TID 0000.0001) %MON exf_uwind_sd                 =   6.6764907455496E+00
(PID.TID 0000.0001) %MON exf_uwind_del2               =   2.8411423485730E-03
(PID.TID 0000.0001) %MON exf_vwind_max                =   1.4443762022766E+01
(PID.TID 0000.0001) %MON exf_vwind_min                =  -1.2792188084280E+01
(PID.TID 0000.0001) %MON exf_vwind_mean               =   8.5164115864290E-01
(PID.TID 0000.0001) %MON exf_vwind_sd                 =   5.1967686642492E+00
(PID.TID 0000.0001) %MON exf_vwind_del2               =   2.0926222517901E-03
(PID.TID 0000.0001) %MON exf_wspeed_max               =   2.0443329438140E+01
(PID.TID 0000.0001) %MON exf_wspeed_min               =   2.0722658254751E-02
(PID.TID 0000.0001) %MON exf_wspeed_mean              =   7.7286011304497E+00
(PID.TID 0000.0001) %MON exf_wspeed_sd                =   4.3218768297581E+00
(PID.TID 0000.0001) %MON exf_wspeed_del2              =   3.5283110630254E-03
(PID.TID 0000.0001) %MON exf_atemp_max                =   2.9816903501159E+02
(PID.TID 0000.0001) %MON exf_atemp_min                =   2.7444935384107E+02
(PID.TID 0000.0001) %MON exf_atemp_mean               =   2.9068966196870E+02
(PID.TID 0000.0001) %MON exf_atemp_sd                 =   3.9435706603967E+00
(PID.TID 0000.0001) %MON exf_atemp_del2               =   6.8447098796181E-03
(PID.TID 0000.0001) %MON exf_aqh_max                  =   1.6794530329835E-02
(PID.TID 0000.0001) %MON exf_aqh_min                  =   2.7308841414245E-03
(PID.TID 0000.0001) %MON exf_aqh_mean                 =   9.4240198902872E-03
(PID.TID 0000.0001) %MON exf_aqh_sd                   =   2.8724836765692E-03
(PID.TID 0000.0001) %MON exf_aqh_del2                 =   3.7513295547110E-06
(PID.TID 0000.0001) %MON exf_lwflux_max               =   1.5068737871059E+02
(PID.TID 0000.0001) %MON exf_lwflux_min               =   1.1240444841288E+01
(PID.TID 0000.0001) %MON exf_lwflux_mean              =   6.8144889374100E+01
(PID.TID 0000.0001) %MON exf_lwflux_sd                =   2.2436207621511E+01
(PID.TID 0000.0001) %MON exf_lwflux_del2              =   2.7554713938793E-02
(PID.TID 0000.0001) %MON exf_evap_max                 =   2.7340042533179E-07
(PID.TID 0000.0001) %MON exf_evap_min                 =  -9.2614188764938E-08
(PID.TID 0000.0001) %MON exf_evap_mean                =   5.9366339432748E-08
(PID.TID 0000.0001) %MON exf_evap_sd                  =   4.2144174877059E-08
(PID.TID 0000.0001) %MON exf_evap_del2                =   2.8590290085443E-11
(PID.TID 0000.0001) %MON exf_precip_max               =   1.4451136385994E-06
(PID.TID 0000.0001) %MON exf_precip_min               =   0.0000000000000E+00
(PID.TID 0000.0001) %MON exf_precip_mean              =   4.3469405978828E-08
(PID.TID 0000.0001) %MON exf_precip_sd                =   1.1052624745011E-07
(PID.TID 0000.0001) %MON exf_precip_del2              =   4.7937600306997E-11
(PID.TID 0000.0001) %MON exf_swflux_max               =   0.0000000000000E+00
(PID.TID 0000.0001) %MON exf_swflux_min               =   0.0000000000000E+00
(PID.TID 0000.0001) %MON exf_swflux_mean              =   0.0000000000000E+00
(PID.TID 0000.0001) %MON exf_swflux_sd                =   0.0000000000000E+00
(PID.TID 0000.0001) %MON exf_swflux_del2              =   0.0000000000000E+00
(PID.TID 0000.0001) %MON exf_swdown_max               =   0.0000000000000E+00
(PID.TID 0000.0001) %MON exf_swdown_min               =   0.0000000000000E+00
(PID.TID 0000.0001) %MON exf_swdown_mean              =   0.0000000000000E+00
(PID.TID 0000.0001) %MON exf_swdown_sd                =   0.0000000000000E+00
(PID.TID 0000.0001) %MON exf_swdown_del2              =   0.0000000000000E+00
(PID.TID 0000.0001) %MON exf_lwdown_max               =   4.0121792842509E+02
(PID.TID 0000.0001) %MON exf_lwdown_min               =   2.2846849151524E+02
(PID.TID 0000.0001) %MON exf_lwdown_mean              =   3.4683597144715E+02
(PID.TID 0000.0001) %MON exf_lwdown_sd                =   2.7582523170917E+01
(PID.TID 0000.0001) %MON exf_lwdown_del2              =   1.3418033850420E-01
(PID.TID 0000.0001) %MON exf_apressure_max            =   1.0279144996075E+05
(PID.TID 0000.0001) %MON exf_apressure_min            =   9.9993666812272E+04
(PID.TID 0000.0001) %MON exf_apressure_mean           =   1.0216218800660E+05
(PID.TID 0000.0001) %MON exf_apressure_sd             =   4.9961757351804E+02
(PID.TID 0000.0001) %MON exf_apressure_del2           =   3.9518486342875E+01
(PID.TID 0000.0001) %MON exf_runoff_max               =   4.4374791284855E-08
(PID.TID 0000.0001) %MON exf_runoff_min               =   0.0000000000000E+00
(PID.TID 0000.0001) %MON exf_runoff_mean              =   1.5884794052194E-09
(PID.TID 0000.0001) %MON exf_runoff_sd                =   5.3901957917178E-09
(PID.TID 0000.0001) %MON exf_runoff_del2              =   2.2191214937507E-12
(PID.TID 0000.0001) // =======================================================
(PID.TID 0000.0001) // End MONITOR EXF statistics
(PID.TID 0000.0001) // =======================================================
 cg2d: Sum(rhs),rhsMax =   4.61024681952192E+02  2.62311856591931E-01
(PID.TID 0000.0001)      cg2d_init_res =   1.86069884371535E+00
(PID.TID 0000.0001)      cg2d_iters(min,last) =      -1     316
(PID.TID 0000.0001)      cg2d_last_res =   6.83703635465661E-12
(PID.TID 0000.0001) // =======================================================
(PID.TID 0000.0001) // Begin MONITOR dynamic field statistics
(PID.TID 0000.0001) // =======================================================
(PID.TID 0000.0001) %MON time_tsnumber                =                     5
(PID.TID 0000.0001) %MON time_secondsf                =   1.2000000000000E+03
(PID.TID 0000.0001) %MON dynstat_eta_max              =   1.2106761993739E+00
(PID.TID 0000.0001) %MON dynstat_eta_min              =  -1.5655364458944E+00
(PID.TID 0000.0001) %MON dynstat_eta_mean             =  -1.5678112966333E-02
(PID.TID 0000.0001) %MON dynstat_eta_sd               =   1.7497210060404E-01
(PID.TID 0000.0001) %MON dynstat_eta_del2             =   2.5507001909171E-06
(PID.TID 0000.0001) %MON dynstat_uvel_max             =   1.2976215225804E+00
(PID.TID 0000.0001) %MON dynstat_uvel_min             =  -9.7990099204180E-01
(PID.TID 0000.0001) %MON dynstat_uvel_mean            =   3.3295627643965E-03
(PID.TID 0000.0001) %MON dynstat_uvel_sd              =   5.2395968939349E-02
(PID.TID 0000.0001) %MON dynstat_uvel_del2            =   4.7166823547768E-07
(PID.TID 0000.0001) %MON dynstat_vvel_max             =   1.8193458240510E+00
(PID.TID 0000.0001) %MON dynstat_vvel_min             =  -9.0650543244290E-01
(PID.TID 0000.0001) %MON dynstat_vvel_mean            =  -2.3715513429855E-03
(PID.TID 0000.0001) %MON dynstat_vvel_sd              =   4.8475999723584E-02
(PID.TID 0000.0001) %MON dynstat_vvel_del2            =   4.3004717237912E-07
(PID.TID 0000.0001) %MON dynstat_wvel_max             =   3.6941465379165E-02
(PID.TID 0000.0001) %MON dynstat_wvel_min             =  -3.1008419283253E-02
(PID.TID 0000.0001) %MON dynstat_wvel_mean            =  -8.8828780953305E-06
(PID.TID 0000.0001) %MON dynstat_wvel_sd              =   5.8845997393699E-04
(PID.TID 0000.0001) %MON dynstat_wvel_del2            =   8.0976772410941E-08
(PID.TID 0000.0001) %MON dynstat_theta_max            =   2.6140334326340E+01
(PID.TID 0000.0001) %MON dynstat_theta_min            =   1.4688641030920E+00
(PID.TID 0000.0001) %MON dynstat_theta_mean           =   5.5098525648278E+00
(PID.TID 0000.0001) %MON dynstat_theta_sd             =   4.7734077601406E+00
(PID.TID 0000.0001) %MON dynstat_theta_del2           =   4.0065644465517E-06
(PID.TID 0000.0001) %MON dynstat_salt_max             =   3.9176411682435E+01
(PID.TID 0000.0001) %MON dynstat_salt_min             =   3.3092698744134E+01
(PID.TID 0000.0001) %MON dynstat_salt_mean            =   3.5173368200314E+01
(PID.TID 0000.0001) %MON dynstat_salt_sd              =   3.7891121635528E-01
(PID.TID 0000.0001) %MON dynstat_salt_del2            =   5.0257276800802E-07
(PID.TID 0000.0001) %MON forcing_qnet_max             =   1.1612240915251E+03
(PID.TID 0000.0001) %MON forcing_qnet_min             =  -2.7352754332559E+02
(PID.TID 0000.0001) %MON forcing_qnet_mean            =   2.4435314571837E+02
(PID.TID 0000.0001) %MON forcing_qnet_sd              =   1.4414943226734E+02
(PID.TID 0000.0001) %MON forcing_qnet_del2            =   1.6745311624455E-03
(PID.TID 0000.0001) %MON forcing_qsw_max              =   0.0000000000000E+00
(PID.TID 0000.0001) %MON forcing_qsw_min              =   0.0000000000000E+00
(PID.TID 0000.0001) %MON forcing_qsw_mean             =   0.0000000000000E+00
(PID.TID 0000.0001) %MON forcing_qsw_sd               =   0.0000000000000E+00
(PID.TID 0000.0001) %MON forcing_qsw_del2             =   0.0000000000000E+00
(PID.TID 0000.0001) %MON forcing_empmr_max            =   2.5934646499170E-04
(PID.TID 0000.0001) %MON forcing_empmr_min            =  -1.2714458046269E-03
(PID.TID 0000.0001) %MON forcing_empmr_mean           =   1.4308454048701E-05
(PID.TID 0000.0001) %MON forcing_empmr_sd             =   1.0961731771552E-04
(PID.TID 0000.0001) %MON forcing_empmr_del2           =   2.7833111556020E-09
(PID.TID 0000.0001) %MON forcing_fu_max               =   8.2989530599711E-01
(PID.TID 0000.0001) %MON forcing_fu_min               =  -4.1939770548428E-01
(PID.TID 0000.0001) %MON forcing_fu_mean              =   6.3015614265317E-02
(PID.TID 0000.0001) %MON forcing_fu_sd                =   1.5552589890969E-01
(PID.TID 0000.0001) %MON forcing_fu_del2              =   3.5192464670384E-07
(PID.TID 0000.0001) %MON forcing_fv_max               =   3.9615046676794E-01
(PID.TID 0000.0001) %MON forcing_fv_min               =  -5.6880837484671E-01
(PID.TID 0000.0001) %MON forcing_fv_mean              =   1.0630349052312E-02
(PID.TID 0000.0001) %MON forcing_fv_sd                =   1.0201869577016E-01
(PID.TID 0000.0001) %MON forcing_fv_del2              =   2.5666408888479E-07
(PID.TID 0000.0001) %MON trAdv_CFL_u_max              =   7.8727687720869E-02
(PID.TID 0000.0001) %MON trAdv_CFL_v_max              =   1.1543558397729E-01
(PID.TID 0000.0001) %MON trAdv_CFL_w_max              =   4.5623825267772E-01
(PID.TID 0000.0001) %MON advcfl_uvel_max              =   7.8727686648920E-02
(PID.TID 0000.0001) %MON advcfl_vvel_max              =   1.1546952651399E-01
(PID.TID 0000.0001) %MON advcfl_wvel_max              =   4.5759207538597E-01
(PID.TID 0000.0001) %MON advcfl_W_hf_max              =   4.5895395656271E-01
(PID.TID 0000.0001) %MON pe_b_mean                    =  -3.4227668653452E-04
(PID.TID 0000.0001) %MON ke_max                       =   1.6592659124151E+00
(PID.TID 0000.0001) %MON ke_mean                      =   2.5370486754623E-03
(PID.TID 0000.0001) %MON ke_vol                       =   4.5818637279721E+16
(PID.TID 0000.0001) %MON vort_r_min                   =  -5.1167384863450E-04
(PID.TID 0000.0001) %MON vort_r_max                   =   4.6859665156115E-04
(PID.TID 0000.0001) %MON vort_a_mean                  =   8.2147635750790E-05
(PID.TID 0000.0001) %MON vort_a_sd                    =   1.0126418878231E-05
(PID.TID 0000.0001) %MON vort_p_mean                  =   8.4848857476289E-05
(PID.TID 0000.0001) %MON vort_p_sd                    =   3.4972126468498E-05
(PID.TID 0000.0001) %MON surfExpan_theta_mean         =  -1.2450299744796E-04
(PID.TID 0000.0001) %MON surfExpan_salt_mean          =  -5.8476442176793E-04
(PID.TID 0000.0001) // =======================================================
(PID.TID 0000.0001) // End MONITOR dynamic field statistics
(PID.TID 0000.0001) // =======================================================
(PID.TID 0000.0001) // =======================================================
(PID.TID 0000.0001) // Begin OBCS MONITOR field statistics
(PID.TID 0000.0001) // =======================================================
(PID.TID 0000.0001) %MON obc_N_vVel_max               =   6.9725214911534E-01
(PID.TID 0000.0001) %MON obc_N_vVel_min               =  -4.5184895764902E-01
(PID.TID 0000.0001) %MON obc_N_vVel_mean              =   1.4325221885016E-02
(PID.TID 0000.0001) %MON obc_N_vVel_sd                =   6.5376517728120E-02
(PID.TID 0000.0001) %MON obc_N_vVel_Int               =   2.0506676123052E+08
(PID.TID 0000.0001) %MON obc_S_vVel_max               =   1.5635185820750E+00
(PID.TID 0000.0001) %MON obc_S_vVel_min               =  -2.6095179645950E-01
(PID.TID 0000.0001) %MON obc_S_vVel_mean              =   4.4151515691904E-04
(PID.TID 0000.0001) %MON obc_S_vVel_sd                =   3.6002122898631E-02
(PID.TID 0000.0001) %MON obc_S_vVel_Int               =   1.3441001626161E+07
(PID.TID 0000.0001) %MON obc_N_theta_max              =   1.6390420534228E+01
(PID.TID 0000.0001) %MON obc_N_theta_min              =   1.8895909723125E+00
(PID.TID 0000.0001) %MON obc_N_theta_mean             =   5.1589435811386E+00
(PID.TID 0000.0001) %MON obc_N_theta_sd               =   3.4826874778161E+00
(PID.TID 0000.0001) %MON obc_S_theta_max              =   2.5544427564909E+01
(PID.TID 0000.0001) %MON obc_S_theta_min              =   1.4632976223230E+00
(PID.TID 0000.0001) %MON obc_S_theta_mean             =   5.4595537550886E+00
(PID.TID 0000.0001) %MON obc_S_theta_sd               =   5.3559176792685E+00
(PID.TID 0000.0001) %MON obc_N_salt_max               =   3.5910865606142E+01
(PID.TID 0000.0001) %MON obc_N_salt_min               =   3.3295041583212E+01
(PID.TID 0000.0001) %MON obc_N_salt_mean              =   3.5114562836417E+01
(PID.TID 0000.0001) %MON obc_N_salt_sd                =   3.0984873245969E-01
(PID.TID 0000.0001) %MON obc_S_salt_max               =   3.7318312208701E+01
(PID.TID 0000.0001) %MON obc_S_salt_min               =   3.4844694574919E+01
(PID.TID 0000.0001) %MON obc_S_salt_mean              =   3.5168372579251E+01
(PID.TID 0000.0001) %MON obc_S_salt_sd                =   4.5716935240398E-01
(PID.TID 0000.0001) // =======================================================
(PID.TID 0000.0001) // End OBCS MONITOR field statistics
(PID.TID 0000.0001) // =======================================================
(PID.TID 0000.0001) // =======================================================
(PID.TID 0000.0001) // Begin MONITOR EXF statistics
(PID.TID 0000.0001) // =======================================================
(PID.TID 0000.0001) %MON exf_tsnumber                 =                     5
(PID.TID 0000.0001) %MON exf_time_sec                 =   1.2000000000000E+03
(PID.TID 0000.0001) %MON exf_ustress_max              =   8.3101946108120E-01
(PID.TID 0000.0001) %MON exf_ustress_min              =  -4.1640564432657E-01
(PID.TID 0000.0001) %MON exf_ustress_mean             =   6.2977231843335E-02
(PID.TID 0000.0001) %MON exf_ustress_sd               =   1.5518971458584E-01
(PID.TID 0000.0001) %MON exf_ustress_del2             =   3.8537864879265E-07
(PID.TID 0000.0001) %MON exf_vstress_max              =   3.9338121745891E-01
(PID.TID 0000.0001) %MON exf_vstress_min              =  -5.6433707472302E-01
(PID.TID 0000.0001) %MON exf_vstress_mean             =   1.0661800345431E-02
(PID.TID 0000.0001) %MON exf_vstress_sd               =   1.0164760270242E-01
(PID.TID 0000.0001) %MON exf_vstress_del2             =   2.6883584286232E-07
(PID.TID 0000.0001) %MON exf_hflux_max                =   1.1474037068368E+03
(PID.TID 0000.0001) %MON exf_hflux_min                =  -2.7312332921919E+02
(PID.TID 0000.0001) %MON exf_hflux_mean               =   2.4162064145478E+02
(PID.TID 0000.0001) %MON exf_hflux_sd                 =   1.4124385706336E+02
(PID.TID 0000.0001) %MON exf_hflux_del2               =   1.0983373995548E-01
(PID.TID 0000.0001) %MON exf_sflux_max                =   2.5850175884148E-07
(PID.TID 0000.0001) %MON exf_sflux_min                =  -1.3964488507283E-06
(PID.TID 0000.0001) %MON exf_sflux_mean               =   1.5192754349237E-08
(PID.TID 0000.0001) %MON exf_sflux_sd                 =   1.1564792725191E-07
(PID.TID 0000.0001) %MON exf_sflux_del2               =   4.6472135852435E-11
(PID.TID 0000.0001) %MON exf_uwind_max                =   1.9537937784627E+01
(PID.TID 0000.0001) %MON exf_uwind_min                =  -1.4998235921442E+01
(PID.TID 0000.0001) %MON exf_uwind_mean               =   2.4719779052593E+00
(PID.TID 0000.0001) %MON exf_uwind_sd                 =   6.6727420089452E+00
(PID.TID 0000.0001) %MON exf_uwind_del2               =   2.8399497252049E-03
(PID.TID 0000.0001) %MON exf_vwind_max                =   1.4395948802896E+01
(PID.TID 0000.0001) %MON exf_vwind_min                =  -1.2782385722648E+01
(PID.TID 0000.0001) %MON exf_vwind_mean               =   8.5339077987850E-01
(PID.TID 0000.0001) %MON exf_vwind_sd                 =   5.1894249920862E+00
(PID.TID 0000.0001) %MON exf_vwind_del2               =   2.0900996470954E-03
(PID.TID 0000.0001) %MON exf_wspeed_max               =   2.0401750603924E+01
(PID.TID 0000.0001) %MON exf_wspeed_min               =   7.9698971274691E-03
(PID.TID 0000.0001) %MON exf_wspeed_mean              =   7.7224395694912E+00
(PID.TID 0000.0001) %MON exf_wspeed_sd                =   4.3195480491897E+00
(PID.TID 0000.0001) %MON exf_wspeed_del2              =   3.5258669441023E-03
(PID.TID 0000.0001) %MON exf_atemp_max                =   2.9816683772317E+02
(PID.TID 0000.0001) %MON exf_atemp_min                =   2.7442375263243E+02
(PID.TID 0000.0001) %MON exf_atemp_mean               =   2.9068654076250E+02
(PID.TID 0000.0001) %MON exf_atemp_sd                 =   3.9434619743398E+00
(PID.TID 0000.0001) %MON exf_atemp_del2               =   6.8434714431344E-03
(PID.TID 0000.0001) %MON exf_aqh_max                  =   1.6787544028961E-02
(PID.TID 0000.0001) %MON exf_aqh_min                  =   2.7285894436605E-03
(PID.TID 0000.0001) %MON exf_aqh_mean                 =   9.4228317374731E-03
(PID.TID 0000.0001) %MON exf_aqh_sd                   =   2.8724955205138E-03
(PID.TID 0000.0001) %MON exf_aqh_del2                 =   3.7507960278560E-06
(PID.TID 0000.0001) %MON exf_lwflux_max               =   1.5058637905979E+02
(PID.TID 0000.0001) %MON exf_lwflux_min               =   7.2576047765654E+00
(PID.TID 0000.0001) %MON exf_lwflux_mean              =   6.7368442149729E+01
(PID.TID 0000.0001) %MON exf_lwflux_sd                =   2.3459843854887E+01
(PID.TID 0000.0001) %MON exf_lwflux_del2              =   2.7394393415010E-02
(PID.TID 0000.0001) %MON exf_evap_max                 =   2.7489192162045E-07
(PID.TID 0000.0001) %MON exf_evap_min                 =  -9.3327188312467E-08
(PID.TID 0000.0001) %MON exf_evap_mean                =   5.9326773904436E-08
(PID.TID 0000.0001) %MON exf_evap_sd                  =   4.2096975440509E-08
(PID.TID 0000.0001) %MON exf_evap_del2                =   2.8571342965747E-11
(PID.TID 0000.0001) %MON exf_precip_max               =   1.5707756941297E-06
(PID.TID 0000.0001) %MON exf_precip_min               =   0.0000000000000E+00
(PID.TID 0000.0001) %MON exf_precip_mean              =   4.2545540149979E-08
(PID.TID 0000.0001) %MON exf_precip_sd                =   1.1790919939009E-07
(PID.TID 0000.0001) %MON exf_precip_del2              =   5.0678369502666E-11
(PID.TID 0000.0001) %MON exf_swflux_max               =   0.0000000000000E+00
(PID.TID 0000.0001) %MON exf_swflux_min               =   0.0000000000000E+00
(PID.TID 0000.0001) %MON exf_swflux_mean              =   0.0000000000000E+00
(PID.TID 0000.0001) %MON exf_swflux_sd                =   0.0000000000000E+00
(PID.TID 0000.0001) %MON exf_swflux_del2              =   0.0000000000000E+00
(PID.TID 0000.0001) %MON exf_swdown_max               =   0.0000000000000E+00
(PID.TID 0000.0001) %MON exf_swdown_min               =   0.0000000000000E+00
(PID.TID 0000.0001) %MON exf_swdown_mean              =   0.0000000000000E+00
(PID.TID 0000.0001) %MON exf_swdown_sd                =   0.0000000000000E+00
(PID.TID 0000.0001) %MON exf_swdown_del2              =   0.0000000000000E+00
(PID.TID 0000.0001) %MON exf_lwdown_max               =   4.0522098466867E+02
(PID.TID 0000.0001) %MON exf_lwdown_min               =   2.2767370597179E+02
(PID.TID 0000.0001) %MON exf_lwdown_mean              =   3.4763002542741E+02
(PID.TID 0000.0001) %MON exf_lwdown_sd                =   2.8649240414861E+01
(PID.TID 0000.0001) %MON exf_lwdown_del2              =   1.3452484309508E-01
(PID.TID 0000.0001) %MON exf_apressure_max            =   1.0279296099314E+05
(PID.TID 0000.0001) %MON exf_apressure_min            =   9.9998241534199E+04
(PID.TID 0000.0001) %MON exf_apressure_mean           =   1.0216296531315E+05
(PID.TID 0000.0001) %MON exf_apressure_sd             =   4.9937521608735E+02
(PID.TID 0000.0001) %MON exf_apressure_del2           =   3.9518793508396E+01
(PID.TID 0000.0001) %MON exf_runoff_max               =   4.4374791284855E-08
(PID.TID 0000.0001) %MON exf_runoff_min               =   0.0000000000000E+00
(PID.TID 0000.0001) %MON exf_runoff_mean              =   1.5884794052194E-09
(PID.TID 0000.0001) %MON exf_runoff_sd                =   5.3901957917178E-09
(PID.TID 0000.0001) %MON exf_runoff_del2              =   2.2191214937507E-12
(PID.TID 0000.0001) // =======================================================
(PID.TID 0000.0001) // End MONITOR EXF statistics
(PID.TID 0000.0001) // =======================================================
 cg2d: Sum(rhs),rhsMax =   5.94159784341917E+02  2.63606510135751E-01
(PID.TID 0000.0001)      cg2d_init_res =   1.62626597993847E+00
(PID.TID 0000.0001)      cg2d_iters(min,last) =      -1     316
(PID.TID 0000.0001)      cg2d_last_res =   6.49839444143365E-12
(PID.TID 0000.0001) // =======================================================
(PID.TID 0000.0001) // Begin MONITOR dynamic field statistics
(PID.TID 0000.0001) // =======================================================
(PID.TID 0000.0001) %MON time_tsnumber                =                     6
(PID.TID 0000.0001) %MON time_secondsf                =   1.4400000000000E+03
(PID.TID 0000.0001) %MON dynstat_eta_max              =   1.2265092627959E+00
(PID.TID 0000.0001) %MON dynstat_eta_min              =  -1.4580927134473E+00
(PID.TID 0000.0001) %MON dynstat_eta_mean             =  -2.0205651852562E-02
(PID.TID 0000.0001) %MON dynstat_eta_sd               =   1.9203012580542E-01
(PID.TID 0000.0001) %MON dynstat_eta_del2             =   2.4404488125154E-06
(PID.TID 0000.0001) %MON dynstat_uvel_max             =   1.2994276123303E+00
(PID.TID 0000.0001) %MON dynstat_uvel_min             =  -8.9273979036689E-01
(PID.TID 0000.0001) %MON dynstat_uvel_mean            =   3.1315070794786E-03
(PID.TID 0000.0001) %MON dynstat_uvel_sd              =   5.2390845737758E-02
(PID.TID 0000.0001) %MON dynstat_uvel_del2            =   4.7897725546318E-07
(PID.TID 0000.0001) %MON dynstat_vvel_max             =   1.8273212950747E+00
(PID.TID 0000.0001) %MON dynstat_vvel_min             =  -9.0982767600399E-01
(PID.TID 0000.0001) %MON dynstat_vvel_mean            =  -2.7147797709921E-03
(PID.TID 0000.0001) %MON dynstat_vvel_sd              =   4.8634127504682E-02
(PID.TID 0000.0001) %MON dynstat_vvel_del2            =   4.3603691603773E-07
(PID.TID 0000.0001) %MON dynstat_wvel_max             =   3.6521486023008E-02
(PID.TID 0000.0001) %MON dynstat_wvel_min             =  -3.0053048798772E-02
(PID.TID 0000.0001) %MON dynstat_wvel_mean            =  -1.0062494096173E-05
(PID.TID 0000.0001) %MON dynstat_wvel_sd              =   5.8865490708459E-04
(PID.TID 0000.0001) %MON dynstat_wvel_del2            =   7.7008774583160E-08
(PID.TID 0000.0001) %MON dynstat_theta_max            =   2.6140011629716E+01
(PID.TID 0000.0001) %MON dynstat_theta_min            =   1.4688642287746E+00
(PID.TID 0000.0001) %MON dynstat_theta_mean           =   5.5098518878897E+00
(PID.TID 0000.0001) %MON dynstat_theta_sd             =   4.7733890237347E+00
(PID.TID 0000.0001) %MON dynstat_theta_del2           =   4.0105567408818E-06
(PID.TID 0000.0001) %MON dynstat_salt_max             =   3.9173654110134E+01
(PID.TID 0000.0001) %MON dynstat_salt_min             =   3.3093469788264E+01
(PID.TID 0000.0001) %MON dynstat_salt_mean            =   3.5173367481162E+01
(PID.TID 0000.0001) %MON dynstat_salt_sd              =   3.7891106595380E-01
(PID.TID 0000.0001) %MON dynstat_salt_del2            =   5.0616564041568E-07
(PID.TID 0000.0001) %MON forcing_qnet_max             =   1.1647361204268E+03
(PID.TID 0000.0001) %MON forcing_qnet_min             =  -2.7810340325091E+02
(PID.TID 0000.0001) %MON forcing_qnet_mean            =   2.4355660474492E+02
(PID.TID 0000.0001) %MON forcing_qnet_sd              =   1.4340742350595E+02
(PID.TID 0000.0001) %MON forcing_qnet_del2            =   1.6770895855792E-03
(PID.TID 0000.0001) %MON forcing_qsw_max              =   0.0000000000000E+00
(PID.TID 0000.0001) %MON forcing_qsw_min              =   0.0000000000000E+00
(PID.TID 0000.0001) %MON forcing_qsw_mean             =   0.0000000000000E+00
(PID.TID 0000.0001) %MON forcing_qsw_sd               =   0.0000000000000E+00
(PID.TID 0000.0001) %MON forcing_qsw_del2             =   0.0000000000000E+00
(PID.TID 0000.0001) %MON forcing_empmr_max            =   2.5850175884148E-04
(PID.TID 0000.0001) %MON forcing_empmr_min            =  -1.3964488507283E-03
(PID.TID 0000.0001) %MON forcing_empmr_mean           =   1.5192754349237E-05
(PID.TID 0000.0001) %MON forcing_empmr_sd             =   1.1564792725191E-04
(PID.TID 0000.0001) %MON forcing_empmr_del2           =   2.9486106644559E-09
(PID.TID 0000.0001) %MON forcing_fu_max               =   8.2961609401259E-01
(PID.TID 0000.0001) %MON forcing_fu_min               =  -4.1639925424047E-01
(PID.TID 0000.0001) %MON forcing_fu_mean              =   6.3035152832224E-02
(PID.TID 0000.0001) %MON forcing_fu_sd                =   1.5524913156684E-01
(PID.TID 0000.0001) %MON forcing_fu_del2              =   3.4389372201112E-07
(PID.TID 0000.0001) %MON forcing_fv_max               =   3.9289943501662E-01
(PID.TID 0000.0001) %MON forcing_fv_min               =  -5.6755531106613E-01
(PID.TID 0000.0001) %MON forcing_fv_mean              =   1.0642338596059E-02
(PID.TID 0000.0001) %MON forcing_fv_sd                =   1.0177853730035E-01
(PID.TID 0000.0001) %MON forcing_fv_del2              =   2.4874195768705E-07
(PID.TID 0000.0001) %MON trAdv_CFL_u_max              =   7.8837264563850E-02
(PID.TID 0000.0001) %MON trAdv_CFL_v_max              =   1.1594161924720E-01
(PID.TID 0000.0001) %MON trAdv_CFL_w_max              =   4.8640583169289E-01
(PID.TID 0000.0001) %MON advcfl_uvel_max              =   7.8837263490410E-02
(PID.TID 0000.0001) %MON advcfl_vvel_max              =   1.1597571057788E-01
(PID.TID 0000.0001) %MON advcfl_wvel_max              =   4.8263524385031E-01
(PID.TID 0000.0001) %MON advcfl_W_hf_max              =   4.8640583169289E-01
(PID.TID 0000.0001) %MON pe_b_mean                    =  -4.4445247677579E-04
(PID.TID 0000.0001) %MON ke_max                       =   1.6733456219859E+00
(PID.TID 0000.0001) %MON ke_mean                      =   2.5446509090013E-03
(PID.TID 0000.0001) %MON ke_vol                       =   4.5818637279721E+16
(PID.TID 0000.0001) %MON vort_r_min                   =  -5.2059198971718E-04
(PID.TID 0000.0001) %MON vort_r_max                   =   4.8332374954104E-04
(PID.TID 0000.0001) %MON vort_a_mean                  =   8.2147635088586E-05
(PID.TID 0000.0001) %MON vort_a_sd                    =   1.0129367833360E-05
(PID.TID 0000.0001) %MON vort_p_mean                  =   8.4848856792311E-05
(PID.TID 0000.0001) %MON vort_p_sd                    =   3.4970785907803E-05
(PID.TID 0000.0001) %MON surfExpan_theta_mean         =  -1.6618220764664E-04
(PID.TID 0000.0001) %MON surfExpan_salt_mean          =  -6.5508482085591E-04
(PID.TID 0000.0001) // =======================================================
(PID.TID 0000.0001) // End MONITOR dynamic field statistics
(PID.TID 0000.0001) // =======================================================
(PID.TID 0000.0001) // =======================================================
(PID.TID 0000.0001) // Begin OBCS MONITOR field statistics
(PID.TID 0000.0001) // =======================================================
(PID.TID 0000.0001) %MON obc_N_vVel_max               =   6.9715618740951E-01
(PID.TID 0000.0001) %MON obc_N_vVel_min               =  -4.5248655318019E-01
(PID.TID 0000.0001) %MON obc_N_vVel_mean              =   1.4344661761287E-02
(PID.TID 0000.0001) %MON obc_N_vVel_sd                =   6.5350826923092E-02
(PID.TID 0000.0001) %MON obc_N_vVel_Int               =   2.0534504470127E+08
(PID.TID 0000.0001) %MON obc_S_vVel_max               =   1.5646439758920E+00
(PID.TID 0000.0001) %MON obc_S_vVel_min               =  -2.6103473730276E-01
(PID.TID 0000.0001) %MON obc_S_vVel_mean              =  -2.5799781805301E-04
(PID.TID 0000.0001) %MON obc_S_vVel_sd                =   3.6023089660794E-02
(PID.TID 0000.0001) %MON obc_S_vVel_Int               =  -7.8542016908206E+06
(PID.TID 0000.0001) %MON obc_N_theta_max              =   1.6390332432041E+01
(PID.TID 0000.0001) %MON obc_N_theta_min              =   1.8895910213779E+00
(PID.TID 0000.0001) %MON obc_N_theta_mean             =   5.1589361969886E+00
(PID.TID 0000.0001) %MON obc_N_theta_sd               =   3.4826781859977E+00
(PID.TID 0000.0001) %MON obc_S_theta_max              =   2.5544324816130E+01
(PID.TID 0000.0001) %MON obc_S_theta_min              =   1.4632980186102E+00
(PID.TID 0000.0001) %MON obc_S_theta_mean             =   5.4595529500640E+00
(PID.TID 0000.0001) %MON obc_S_theta_sd               =   5.3559138080854E+00
(PID.TID 0000.0001) %MON obc_N_salt_max               =   3.5910865197779E+01
(PID.TID 0000.0001) %MON obc_N_salt_min               =   3.3295047085845E+01
(PID.TID 0000.0001) %MON obc_N_salt_mean              =   3.5114562540430E+01
(PID.TID 0000.0001) %MON obc_N_salt_sd                =   3.0984861316313E-01
(PID.TID 0000.0001) %MON obc_S_salt_max               =   3.7318305324317E+01
(PID.TID 0000.0001) %MON obc_S_salt_min               =   3.4844694627139E+01
(PID.TID 0000.0001) %MON obc_S_salt_mean              =   3.5168372507335E+01
(PID.TID 0000.0001) %MON obc_S_salt_sd                =   4.5716900132847E-01
(PID.TID 0000.0001) // =======================================================
(PID.TID 0000.0001) // End OBCS MONITOR field statistics
(PID.TID 0000.0001) // =======================================================
(PID.TID 0000.0001) // =======================================================
(PID.TID 0000.0001) // Begin MONITOR EXF statistics
(PID.TID 0000.0001) // =======================================================
(PID.TID 0000.0001) %MON exf_tsnumber                 =                     6
(PID.TID 0000.0001) %MON exf_time_sec                 =   1.4400000000000E+03
(PID.TID 0000.0001) %MON exf_ustress_max              =   8.2999366529738E-01
(PID.TID 0000.0001) %MON exf_ustress_min              =  -4.1351993426946E-01
(PID.TID 0000.0001) %MON exf_ustress_mean             =   6.3024099105750E-02
(PID.TID 0000.0001) %MON exf_ustress_sd               =   1.5499950333599E-01
(PID.TID 0000.0001) %MON exf_ustress_del2             =   3.8074012318006E-07
(PID.TID 0000.0001) %MON exf_vstress_max              =   3.9170077070203E-01
(PID.TID 0000.0001) %MON exf_vstress_min              =  -5.6335194011099E-01
(PID.TID 0000.0001) %MON exf_vstress_mean             =   1.0686233523398E-02
(PID.TID 0000.0001) %MON exf_vstress_sd               =   1.0149030497179E-01
(PID.TID 0000.0001) %MON exf_vstress_del2             =   2.6502169543544E-07
(PID.TID 0000.0001) %MON exf_hflux_max                =   1.1510537715969E+03
(PID.TID 0000.0001) %MON exf_hflux_min                =  -2.7782927665090E+02
(PID.TID 0000.0001) %MON exf_hflux_mean               =   2.4077293881942E+02
(PID.TID 0000.0001) %MON exf_hflux_sd                 =   1.4076816998495E+02
(PID.TID 0000.0001) %MON exf_hflux_del2               =   1.0945539575549E-01
(PID.TID 0000.0001) %MON exf_sflux_max                =   2.5770215109049E-07
(PID.TID 0000.0001) %MON exf_sflux_min                =  -1.5214567066035E-06
(PID.TID 0000.0001) %MON exf_sflux_mean               =   1.6086180819983E-08
(PID.TID 0000.0001) %MON exf_sflux_sd                 =   1.2268427454039E-07
(PID.TID 0000.0001) %MON exf_sflux_del2               =   4.9405360021258E-11
(PID.TID 0000.0001) %MON exf_uwind_max                =   1.9536600047894E+01
(PID.TID 0000.0001) %MON exf_uwind_min                =  -1.4964724610532E+01
(PID.TID 0000.0001) %MON exf_uwind_mean               =   2.4736821125467E+00
(PID.TID 0000.0001) %MON exf_uwind_sd                 =   6.6698844041142E+00
(PID.TID 0000.0001) %MON exf_uwind_del2               =   2.8391095558010E-03
(PID.TID 0000.0001) %MON exf_vwind_max                =   1.4375745142393E+01
(PID.TID 0000.0001) %MON exf_vwind_min                =  -1.2776391604813E+01
(PID.TID 0000.0001) %MON exf_vwind_mean               =   8.5514288317442E-01
(PID.TID 0000.0001) %MON exf_vwind_sd                 =   5.1836971062014E+00
(PID.TID 0000.0001) %MON exf_vwind_del2               =   2.0882335626118E-03
(PID.TID 0000.0001) %MON exf_wspeed_max               =   2.0362955124394E+01
(PID.TID 0000.0001) %MON exf_wspeed_min               =   1.2734399387260E-02
(PID.TID 0000.0001) %MON exf_wspeed_mean              =   7.7175541781110E+00
(PID.TID 0000.0001) %MON exf_wspeed_sd                =   4.3183102836162E+00
(PID.TID 0000.0001) %MON exf_wspeed_del2              =   3.5240927047518E-03
(PID.TID 0000.0001) %MON exf_atemp_max                =   2.9816464043476E+02
(PID.TID 0000.0001) %MON exf_atemp_min                =   2.7439815142379E+02
(PID.TID 0000.0001) %MON exf_atemp_mean               =   2.9068341955631E+02
(PID.TID 0000.0001) %MON exf_atemp_sd                 =   3.9434957823437E+00
(PID.TID 0000.0001) %MON exf_atemp_del2               =   6.8422467283737E-03
(PID.TID 0000.0001) %MON exf_aqh_max                  =   1.6780557728087E-02
(PID.TID 0000.0001) %MON exf_aqh_min                  =   2.7262947458965E-03
(PID.TID 0000.0001) %MON exf_aqh_mean                 =   9.4216435846591E-03
(PID.TID 0000.0001) %MON exf_aqh_sd                   =   2.8726801694255E-03
(PID.TID 0000.0001) %MON exf_aqh_del2                 =   3.7502842763471E-06
(PID.TID 0000.0001) %MON exf_lwflux_max               =   1.5056904712995E+02
(PID.TID 0000.0001) %MON exf_lwflux_min               =   3.2739968237698E+00
(PID.TID 0000.0001) %MON exf_lwflux_mean              =   6.6592618239044E+01
(PID.TID 0000.0001) %MON exf_lwflux_sd                =   2.4690390415595E+01
(PID.TID 0000.0001) %MON exf_lwflux_del2              =   2.7271332722222E-02
(PID.TID 0000.0001) %MON exf_evap_max                 =   2.7643509723395E-07
(PID.TID 0000.0001) %MON exf_evap_min                 =  -9.4054273931780E-08
(PID.TID 0000.0001) %MON exf_evap_mean                =   5.9296334546334E-08
(PID.TID 0000.0001) %MON exf_evap_sd                  =   4.2063109134344E-08
(PID.TID 0000.0001) %MON exf_evap_del2                =   2.8558582061513E-11
(PID.TID 0000.0001) %MON exf_precip_max               =   1.6964377496601E-06
(PID.TID 0000.0001) %MON exf_precip_min               =   0.0000000000000E+00
(PID.TID 0000.0001) %MON exf_precip_mean              =   4.1621674321131E-08
(PID.TID 0000.0001) %MON exf_precip_sd                =   1.2611994878121E-07
(PID.TID 0000.0001) %MON exf_precip_del2              =   5.3753981502031E-11
(PID.TID 0000.0001) %MON exf_swflux_max               =   0.0000000000000E+00
(PID.TID 0000.0001) %MON exf_swflux_min               =   0.0000000000000E+00
(PID.TID 0000.0001) %MON exf_swflux_mean              =   0.0000000000000E+00
(PID.TID 0000.0001) %MON exf_swflux_sd                =   0.0000000000000E+00
(PID.TID 0000.0001) %MON exf_swflux_del2              =   0.0000000000000E+00
(PID.TID 0000.0001) %MON exf_swdown_max               =   0.0000000000000E+00
(PID.TID 0000.0001) %MON exf_swdown_min               =   0.0000000000000E+00
(PID.TID 0000.0001) %MON exf_swdown_mean              =   0.0000000000000E+00
(PID.TID 0000.0001) %MON exf_swdown_sd                =   0.0000000000000E+00
(PID.TID 0000.0001) %MON exf_swdown_del2              =   0.0000000000000E+00
(PID.TID 0000.0001) %MON exf_lwdown_max               =   4.0922404091225E+02
(PID.TID 0000.0001) %MON exf_lwdown_min               =   2.2687892042835E+02
(PID.TID 0000.0001) %MON exf_lwdown_mean              =   3.4842407940767E+02
(PID.TID 0000.0001) %MON exf_lwdown_sd                =   2.9896536470828E+01
(PID.TID 0000.0001) %MON exf_lwdown_del2              =   1.3487661249190E-01
(PID.TID 0000.0001) %MON exf_apressure_max            =   1.0279447202553E+05
(PID.TID 0000.0001) %MON exf_apressure_min            =   1.0000228416919E+05
(PID.TID 0000.0001) %MON exf_apressure_mean           =   1.0216374261970E+05
(PID.TID 0000.0001) %MON exf_apressure_sd             =   4.9917253457380E+02
(PID.TID 0000.0001) %MON exf_apressure_del2           =   3.9519100755332E+01
(PID.TID 0000.0001) %MON exf_runoff_max               =   4.4374791284855E-08
(PID.TID 0000.0001) %MON exf_runoff_min               =   0.0000000000000E+00
(PID.TID 0000.0001) %MON exf_runoff_mean              =   1.5884794052194E-09
(PID.TID 0000.0001) %MON exf_runoff_sd                =   5.3901957917178E-09
(PID.TID 0000.0001) %MON exf_runoff_del2              =   2.2191214937507E-12
(PID.TID 0000.0001) // =======================================================
(PID.TID 0000.0001) // End MONITOR EXF statistics
(PID.TID 0000.0001) // =======================================================
 cg2d: Sum(rhs),rhsMax =   7.40609907147220E+02  2.39102155935052E-01
(PID.TID 0000.0001)      cg2d_init_res =   1.49384946984590E+00
(PID.TID 0000.0001)      cg2d_iters(min,last) =      -1     315
(PID.TID 0000.0001)      cg2d_last_res =   6.89866149471135E-12
(PID.TID 0000.0001) // =======================================================
(PID.TID 0000.0001) // Begin MONITOR dynamic field statistics
(PID.TID 0000.0001) // =======================================================
(PID.TID 0000.0001) %MON time_tsnumber                =                     7
(PID.TID 0000.0001) %MON time_secondsf                =   1.6800000000000E+03
(PID.TID 0000.0001) %MON dynstat_eta_max              =   1.2136232642797E+00
(PID.TID 0000.0001) %MON dynstat_eta_min              =  -1.3836721473266E+00
(PID.TID 0000.0001) %MON dynstat_eta_mean             =  -2.5185995984144E-02
(PID.TID 0000.0001) %MON dynstat_eta_sd               =   2.0694158709044E-01
(PID.TID 0000.0001) %MON dynstat_eta_del2             =   2.4741048855962E-06
(PID.TID 0000.0001) %MON dynstat_uvel_max             =   1.2999368203385E+00
(PID.TID 0000.0001) %MON dynstat_uvel_min             =  -7.9027312089202E-01
(PID.TID 0000.0001) %MON dynstat_uvel_mean            =   2.9174270268100E-03
(PID.TID 0000.0001) %MON dynstat_uvel_sd              =   5.2369229694452E-02
(PID.TID 0000.0001) %MON dynstat_uvel_del2            =   4.8861160844065E-07
(PID.TID 0000.0001) %MON dynstat_vvel_max             =   1.8339727787750E+00
(PID.TID 0000.0001) %MON dynstat_vvel_min             =  -9.1279722820363E-01
(PID.TID 0000.0001) %MON dynstat_vvel_mean            =  -3.0342331498394E-03
(PID.TID 0000.0001) %MON dynstat_vvel_sd              =   4.8805675496853E-02
(PID.TID 0000.0001) %MON dynstat_vvel_del2            =   4.4413393961390E-07
(PID.TID 0000.0001) %MON dynstat_wvel_max             =   3.6070889395111E-02
(PID.TID 0000.0001) %MON dynstat_wvel_min             =  -2.9015683114023E-02
(PID.TID 0000.0001) %MON dynstat_wvel_mean            =  -1.1230083796993E-05
(PID.TID 0000.0001) %MON dynstat_wvel_sd              =   5.9107499358308E-04
(PID.TID 0000.0001) %MON dynstat_wvel_del2            =   7.5107467608912E-08
(PID.TID 0000.0001) %MON dynstat_theta_max            =   2.6139688243876E+01
(PID.TID 0000.0001) %MON dynstat_theta_min            =   1.4688643624256E+00
(PID.TID 0000.0001) %MON dynstat_theta_mean           =   5.5098531226436E+00
(PID.TID 0000.0001) %MON dynstat_theta_sd             =   4.7733730734590E+00
(PID.TID 0000.0001) %MON dynstat_theta_del2           =   4.0141452310901E-06
(PID.TID 0000.0001) %MON dynstat_salt_max             =   3.9170611497141E+01
(PID.TID 0000.0001) %MON dynstat_salt_min             =   3.3094291927812E+01
(PID.TID 0000.0001) %MON dynstat_salt_mean            =   3.5173366942424E+01
(PID.TID 0000.0001) %MON dynstat_salt_sd              =   3.7891121516864E-01
(PID.TID 0000.0001) %MON dynstat_salt_del2            =   5.0990751391371E-07
(PID.TID 0000.0001) %MON forcing_qnet_max             =   1.1684870833488E+03
(PID.TID 0000.0001) %MON forcing_qnet_min             =  -2.8273071388034E+02
(PID.TID 0000.0001) %MON forcing_qnet_mean            =   2.4279004858319E+02
(PID.TID 0000.0001) %MON forcing_qnet_sd              =   1.4275926010442E+02
(PID.TID 0000.0001) %MON forcing_qnet_del2            =   1.6740641860379E-03
(PID.TID 0000.0001) %MON forcing_qsw_max              =   0.0000000000000E+00
(PID.TID 0000.0001) %MON forcing_qsw_min              =   0.0000000000000E+00
(PID.TID 0000.0001) %MON forcing_qsw_mean             =   0.0000000000000E+00
(PID.TID 0000.0001) %MON forcing_qsw_sd               =   0.0000000000000E+00
(PID.TID 0000.0001) %MON forcing_qsw_del2             =   0.0000000000000E+00
(PID.TID 0000.0001) %MON forcing_empmr_max            =   2.5770215109049E-04
(PID.TID 0000.0001) %MON forcing_empmr_min            =  -1.5214567066035E-03
(PID.TID 0000.0001) %MON forcing_empmr_mean           =   1.6086180819983E-05
(PID.TID 0000.0001) %MON forcing_empmr_sd             =   1.2268427454039E-04
(PID.TID 0000.0001) %MON forcing_empmr_del2           =   3.1386440195816E-09
(PID.TID 0000.0001) %MON forcing_fu_max               =   8.2833948133783E-01
(PID.TID 0000.0001) %MON forcing_fu_min               =  -4.1346537505783E-01
(PID.TID 0000.0001) %MON forcing_fu_mean              =   6.3082450712332E-02
(PID.TID 0000.0001) %MON forcing_fu_sd                =   1.5505911582896E-01
(PID.TID 0000.0001) %MON forcing_fu_del2              =   3.3949366189731E-07
(PID.TID 0000.0001) %MON forcing_fv_max               =   3.9124371372968E-01
(PID.TID 0000.0001) %MON forcing_fv_min               =  -5.6676967514197E-01
(PID.TID 0000.0001) %MON forcing_fv_mean              =   1.0667068175835E-02
(PID.TID 0000.0001) %MON forcing_fv_sd                =   1.0162159023248E-01
(PID.TID 0000.0001) %MON forcing_fv_del2              =   2.4483446577595E-07
(PID.TID 0000.0001) %MON trAdv_CFL_u_max              =   7.8868158602180E-02
(PID.TID 0000.0001) %MON trAdv_CFL_v_max              =   1.1636364891033E-01
(PID.TID 0000.0001) %MON trAdv_CFL_w_max              =   5.2150312833694E-01
(PID.TID 0000.0001) %MON advcfl_uvel_max              =   7.8868157528319E-02
(PID.TID 0000.0001) %MON advcfl_vvel_max              =   1.1639786433410E-01
(PID.TID 0000.0001) %MON advcfl_wvel_max              =   5.1746046842735E-01
(PID.TID 0000.0001) %MON advcfl_W_hf_max              =   5.2150312833694E-01
(PID.TID 0000.0001) %MON pe_b_mean                    =  -5.5800784700500E-04
(PID.TID 0000.0001) %MON ke_max                       =   1.6854304266950E+00
(PID.TID 0000.0001) %MON ke_mean                      =   2.5521090172745E-03
(PID.TID 0000.0001) %MON ke_vol                       =   4.5818637279721E+16
(PID.TID 0000.0001) %MON vort_r_min                   =  -5.2617883037974E-04
(PID.TID 0000.0001) %MON vort_r_max                   =   4.9562581088026E-04
(PID.TID 0000.0001) %MON vort_a_mean                  =   8.2147634414029E-05
(PID.TID 0000.0001) %MON vort_a_sd                    =   1.0132755645828E-05
(PID.TID 0000.0001) %MON vort_p_mean                  =   8.4848856095572E-05
(PID.TID 0000.0001) %MON vort_p_sd                    =   3.4970357246435E-05
(PID.TID 0000.0001) %MON surfExpan_theta_mean         =  -2.0870677109805E-04
(PID.TID 0000.0001) %MON surfExpan_salt_mean          =  -7.2454135954210E-04
(PID.TID 0000.0001) // =======================================================
(PID.TID 0000.0001) // End MONITOR dynamic field statistics
(PID.TID 0000.0001) // =======================================================
(PID.TID 0000.0001) // =======================================================
(PID.TID 0000.0001) // Begin OBCS MONITOR field statistics
(PID.TID 0000.0001) // =======================================================
(PID.TID 0000.0001) %MON obc_N_vVel_max               =   6.9704009760657E-01
(PID.TID 0000.0001) %MON obc_N_vVel_min               =  -4.5288892111984E-01
(PID.TID 0000.0001) %MON obc_N_vVel_mean              =   1.4349214041402E-02
(PID.TID 0000.0001) %MON obc_N_vVel_sd                =   6.5322538368548E-02
(PID.TID 0000.0001) %MON obc_N_vVel_Int               =   2.0541021097562E+08
(PID.TID 0000.0001) %MON obc_S_vVel_max               =   1.5657990983032E+00
(PID.TID 0000.0001) %MON obc_S_vVel_min               =  -2.6111230244887E-01
(PID.TID 0000.0001) %MON obc_S_vVel_mean              =  -9.5626168097551E-04
(PID.TID 0000.0001) %MON obc_S_vVel_sd                =   3.6047792925136E-02
(PID.TID 0000.0001) %MON obc_S_vVel_Int               =  -2.9111378414997E+07
(PID.TID 0000.0001) %MON obc_N_theta_max              =   1.6390244329854E+01
(PID.TID 0000.0001) %MON obc_N_theta_min              =   1.8895910704432E+00
(PID.TID 0000.0001) %MON obc_N_theta_mean             =   5.1589288128386E+00
(PID.TID 0000.0001) %MON obc_N_theta_sd               =   3.4826688944174E+00
(PID.TID 0000.0001) %MON obc_S_theta_max              =   2.5544222067351E+01
(PID.TID 0000.0001) %MON obc_S_theta_min              =   1.4632984148975E+00
(PID.TID 0000.0001) %MON obc_S_theta_mean             =   5.4595521450394E+00
(PID.TID 0000.0001) %MON obc_S_theta_sd               =   5.3559099369382E+00
(PID.TID 0000.0001) %MON obc_N_salt_max               =   3.5910864789416E+01
(PID.TID 0000.0001) %MON obc_N_salt_min               =   3.3295052588478E+01
(PID.TID 0000.0001) %MON obc_N_salt_mean              =   3.5114562244444E+01
(PID.TID 0000.0001) %MON obc_N_salt_sd                =   3.0984849389575E-01
(PID.TID 0000.0001) %MON obc_S_salt_max               =   3.7318298439933E+01
(PID.TID 0000.0001) %MON obc_S_salt_min               =   3.4844694679359E+01
(PID.TID 0000.0001) %MON obc_S_salt_mean              =   3.5168372435418E+01
(PID.TID 0000.0001) %MON obc_S_salt_sd                =   4.5716865026302E-01
(PID.TID 0000.0001) // =======================================================
(PID.TID 0000.0001) // End OBCS MONITOR field statistics
(PID.TID 0000.0001) // =======================================================
(PID.TID 0000.0001) // =======================================================
(PID.TID 0000.0001) // Begin MONITOR EXF statistics
(PID.TID 0000.0001) // =======================================================
(PID.TID 0000.0001) %MON exf_tsnumber                 =                     7
(PID.TID 0000.0001) %MON exf_time_sec                 =   1.6800000000000E+03
(PID.TID 0000.0001) %MON exf_ustress_max              =   8.3326794612203E-01
(PID.TID 0000.0001) %MON exf_ustress_min              =  -4.1070616439211E-01
(PID.TID 0000.0001) %MON exf_ustress_mean             =   6.3097156033279E-02
(PID.TID 0000.0001) %MON exf_ustress_sd               =   1.5488985001040E-01
(PID.TID 0000.0001) %MON exf_ustress_del2             =   3.7932859928701E-07
(PID.TID 0000.0001) %MON exf_vstress_max              =   3.9098426239633E-01
(PID.TID 0000.0001) %MON exf_vstress_min              =  -5.6280767825925E-01
(PID.TID 0000.0001) %MON exf_vstress_mean             =   1.0721734436899E-02
(PID.TID 0000.0001) %MON exf_vstress_sd               =   1.0140924447295E-01
(PID.TID 0000.0001) %MON exf_vstress_del2             =   2.6496484982926E-07
(PID.TID 0000.0001) %MON exf_hflux_max                =   1.1549361042096E+03
(PID.TID 0000.0001) %MON exf_hflux_min                =  -2.8258310914908E+02
(PID.TID 0000.0001) %MON exf_hflux_mean               =   2.3995195681009E+02
(PID.TID 0000.0001) %MON exf_hflux_sd                 =   1.4036909256927E+02
(PID.TID 0000.0001) %MON exf_hflux_del2               =   1.0910225318569E-01
(PID.TID 0000.0001) %MON exf_sflux_max                =   2.5694731319342E-07
(PID.TID 0000.0001) %MON exf_sflux_min                =  -1.6464736632255E-06
(PID.TID 0000.0001) %MON exf_sflux_mean               =   1.6988153100650E-08
(PID.TID 0000.0001) %MON exf_sflux_sd                 =   1.3056357048801E-07
(PID.TID 0000.0001) %MON exf_sflux_del2               =   5.2661882010284E-11
(PID.TID 0000.0001) %MON exf_uwind_max                =   1.9526277774327E+01
(PID.TID 0000.0001) %MON exf_uwind_min                =  -1.4931785283484E+01
(PID.TID 0000.0001) %MON exf_uwind_mean               =   2.4754469658452E+00
(PID.TID 0000.0001) %MON exf_uwind_sd                 =   6.6678535180395E+00
(PID.TID 0000.0001) %MON exf_uwind_del2               =   2.8385892849898E-03
(PID.TID 0000.0001) %MON exf_vwind_max                =   1.4378996509749E+01
(PID.TID 0000.0001) %MON exf_vwind_min                =  -1.2774281257806E+01
(PID.TID 0000.0001) %MON exf_vwind_mean               =   8.5689205167999E-01
(PID.TID 0000.0001) %MON exf_vwind_sd                 =   5.1795514053698E+00
(PID.TID 0000.0001) %MON exf_vwind_del2               =   2.0870088858581E-03
(PID.TID 0000.0001) %MON exf_wspeed_max               =   2.0328813857355E+01
(PID.TID 0000.0001) %MON exf_wspeed_min               =   9.8591427678225E-03
(PID.TID 0000.0001) %MON exf_wspeed_mean              =   7.7138973967777E+00
(PID.TID 0000.0001) %MON exf_wspeed_sd                =   4.3180912357001E+00
(PID.TID 0000.0001) %MON exf_wspeed_del2              =   3.5229526096680E-03
(PID.TID 0000.0001) %MON exf_atemp_max                =   2.9816244314634E+02
(PID.TID 0000.0001) %MON exf_atemp_min                =   2.7437255021515E+02
(PID.TID 0000.0001) %MON exf_atemp_mean               =   2.9068029835012E+02
(PID.TID 0000.0001) %MON exf_atemp_sd                 =   3.9436720807438E+00
(PID.TID 0000.0001) %MON exf_atemp_del2               =   6.8410357427056E-03
(PID.TID 0000.0001) %MON exf_aqh_max                  =   1.6773571427214E-02
(PID.TID 0000.0001) %MON exf_aqh_min                  =   2.7240000481325E-03
(PID.TID 0000.0001) %MON exf_aqh_mean                 =   9.4204554318450E-03
(PID.TID 0000.0001) %MON exf_aqh_sd                   =   2.8730375899859E-03
(PID.TID 0000.0001) %MON exf_aqh_del2                 =   3.7497943090998E-06
(PID.TID 0000.0001) %MON exf_lwflux_max               =   1.5197376776649E+02
(PID.TID 0000.0001) %MON exf_lwflux_min               =  -3.7856900587203E+00
(PID.TID 0000.0001) %MON exf_lwflux_mean              =   6.5817273369717E+01
(PID.TID 0000.0001) %MON exf_lwflux_sd                =   2.6098585249210E+01
(PID.TID 0000.0001) %MON exf_lwflux_del2              =   2.7185977795818E-02
(PID.TID 0000.0001) %MON exf_evap_max                 =   2.7802320205872E-07
(PID.TID 0000.0001) %MON exf_evap_min                 =  -9.4794651025018E-08
(PID.TID 0000.0001) %MON exf_evap_mean                =   5.9274440998152E-08
(PID.TID 0000.0001) %MON exf_evap_sd                  =   4.2041706904606E-08
(PID.TID 0000.0001) %MON exf_evap_del2                =   2.8551562502464E-11
(PID.TID 0000.0001) %MON exf_precip_max               =   1.8220998051905E-06
(PID.TID 0000.0001) %MON exf_precip_min               =   0.0000000000000E+00
(PID.TID 0000.0001) %MON exf_precip_mean              =   4.0697808492283E-08
(PID.TID 0000.0001) %MON exf_precip_sd                =   1.3500754762119E-07
(PID.TID 0000.0001) %MON exf_precip_del2              =   5.7110364197837E-11
(PID.TID 0000.0001) %MON exf_swflux_max               =   0.0000000000000E+00
(PID.TID 0000.0001) %MON exf_swflux_min               =   0.0000000000000E+00
(PID.TID 0000.0001) %MON exf_swflux_mean              =   0.0000000000000E+00
(PID.TID 0000.0001) %MON exf_swflux_sd                =   0.0000000000000E+00
(PID.TID 0000.0001) %MON exf_swflux_del2              =   0.0000000000000E+00
(PID.TID 0000.0001) %MON exf_swdown_max               =   0.0000000000000E+00
(PID.TID 0000.0001) %MON exf_swdown_min               =   0.0000000000000E+00
(PID.TID 0000.0001) %MON exf_swdown_mean              =   0.0000000000000E+00
(PID.TID 0000.0001) %MON exf_swdown_sd                =   0.0000000000000E+00
(PID.TID 0000.0001) %MON exf_swdown_del2              =   0.0000000000000E+00
(PID.TID 0000.0001) %MON exf_lwdown_max               =   4.1505412793497E+02
(PID.TID 0000.0001) %MON exf_lwdown_min               =   2.2448607473773E+02
(PID.TID 0000.0001) %MON exf_lwdown_mean              =   3.4921813338793E+02
(PID.TID 0000.0001) %MON exf_lwdown_sd                =   3.1302832687846E+01
(PID.TID 0000.0001) %MON exf_lwdown_del2              =   1.3523559000391E-01
(PID.TID 0000.0001) %MON exf_apressure_max            =   1.0279678232205E+05
(PID.TID 0000.0001) %MON exf_apressure_min            =   1.0000622433023E+05
(PID.TID 0000.0001) %MON exf_apressure_mean           =   1.0216451992626E+05
(PID.TID 0000.0001) %MON exf_apressure_sd             =   4.9900957732261E+02
(PID.TID 0000.0001) %MON exf_apressure_del2           =   3.9519408083682E+01
(PID.TID 0000.0001) %MON exf_runoff_max               =   4.4374791284855E-08
(PID.TID 0000.0001) %MON exf_runoff_min               =   0.0000000000000E+00
(PID.TID 0000.0001) %MON exf_runoff_mean              =   1.5884794052194E-09
(PID.TID 0000.0001) %MON exf_runoff_sd                =   5.3901957917178E-09
(PID.TID 0000.0001) %MON exf_runoff_del2              =   2.2191214937507E-12
(PID.TID 0000.0001) // =======================================================
(PID.TID 0000.0001) // End MONITOR EXF statistics
(PID.TID 0000.0001) // =======================================================
 cg2d: Sum(rhs),rhsMax =   9.00202359895150E+02  1.94316596854300E-01
(PID.TID 0000.0001)      cg2d_init_res =   1.51549216889044E+00
(PID.TID 0000.0001)      cg2d_iters(min,last) =      -1     315
(PID.TID 0000.0001)      cg2d_last_res =   6.64517303693145E-12
(PID.TID 0000.0001) // =======================================================
(PID.TID 0000.0001) // Begin MONITOR dynamic field statistics
(PID.TID 0000.0001) // =======================================================
(PID.TID 0000.0001) %MON time_tsnumber                =                     8
(PID.TID 0000.0001) %MON time_secondsf                =   1.9200000000000E+03
(PID.TID 0000.0001) %MON dynstat_eta_max              =   1.1864518267491E+00
(PID.TID 0000.0001) %MON dynstat_eta_min              =  -1.5873360808274E+00
(PID.TID 0000.0001) %MON dynstat_eta_mean             =  -3.0613272658705E-02
(PID.TID 0000.0001) %MON dynstat_eta_sd               =   2.2034904107588E-01
(PID.TID 0000.0001) %MON dynstat_eta_del2             =   2.5339788565600E-06
(PID.TID 0000.0001) %MON dynstat_uvel_max             =   1.2988040908243E+00
(PID.TID 0000.0001) %MON dynstat_uvel_min             =  -7.9456784314807E-01
(PID.TID 0000.0001) %MON dynstat_uvel_mean            =   2.6933016241696E-03
(PID.TID 0000.0001) %MON dynstat_uvel_sd              =   5.2340513191827E-02
(PID.TID 0000.0001) %MON dynstat_uvel_del2            =   4.9994206015385E-07
(PID.TID 0000.0001) %MON dynstat_vvel_max             =   1.8388344101649E+00
(PID.TID 0000.0001) %MON dynstat_vvel_min             =  -9.1535417018160E-01
(PID.TID 0000.0001) %MON dynstat_vvel_mean            =  -3.3337197883925E-03
(PID.TID 0000.0001) %MON dynstat_vvel_sd              =   4.8977306675466E-02
(PID.TID 0000.0001) %MON dynstat_vvel_del2            =   4.5361185681357E-07
(PID.TID 0000.0001) %MON dynstat_wvel_max             =   3.5629014486996E-02
(PID.TID 0000.0001) %MON dynstat_wvel_min             =  -2.8346119091844E-02
(PID.TID 0000.0001) %MON dynstat_wvel_mean            =  -1.2384257704171E-05
(PID.TID 0000.0001) %MON dynstat_wvel_sd              =   5.9524147599465E-04
(PID.TID 0000.0001) %MON dynstat_wvel_del2            =   7.5112250553463E-08
(PID.TID 0000.0001) %MON dynstat_theta_max            =   2.6138961940107E+01
(PID.TID 0000.0001) %MON dynstat_theta_min            =   1.4688645042041E+00
(PID.TID 0000.0001) %MON dynstat_theta_mean           =   5.5098563317586E+00
(PID.TID 0000.0001) %MON dynstat_theta_sd             =   4.7733600315656E+00
(PID.TID 0000.0001) %MON dynstat_theta_del2           =   4.0173291579973E-06
(PID.TID 0000.0001) %MON dynstat_salt_max             =   3.9167319796958E+01
(PID.TID 0000.0001) %MON dynstat_salt_min             =   3.3095163278374E+01
(PID.TID 0000.0001) %MON dynstat_salt_mean            =   3.5173366581286E+01
(PID.TID 0000.0001) %MON dynstat_salt_sd              =   3.7891160784091E-01
(PID.TID 0000.0001) %MON dynstat_salt_del2            =   5.1363002315466E-07
(PID.TID 0000.0001) %MON forcing_qnet_max             =   1.1724483247885E+03
(PID.TID 0000.0001) %MON forcing_qnet_min             =  -2.8740658195454E+02
(PID.TID 0000.0001) %MON forcing_qnet_mean            =   2.4205119969913E+02
(PID.TID 0000.0001) %MON forcing_qnet_sd              =   1.4220300655413E+02
(PID.TID 0000.0001) %MON forcing_qnet_del2            =   1.6740660094929E-03
(PID.TID 0000.0001) %MON forcing_qsw_max              =   0.0000000000000E+00
(PID.TID 0000.0001) %MON forcing_qsw_min              =   0.0000000000000E+00
(PID.TID 0000.0001) %MON forcing_qsw_mean             =   0.0000000000000E+00
(PID.TID 0000.0001) %MON forcing_qsw_sd               =   0.0000000000000E+00
(PID.TID 0000.0001) %MON forcing_qsw_del2             =   0.0000000000000E+00
(PID.TID 0000.0001) %MON forcing_empmr_max            =   2.5694731319342E-04
(PID.TID 0000.0001) %MON forcing_empmr_min            =  -1.6464736632255E-03
(PID.TID 0000.0001) %MON forcing_empmr_mean           =   1.6988153100650E-05
(PID.TID 0000.0001) %MON forcing_empmr_sd             =   1.3056357048801E-04
(PID.TID 0000.0001) %MON forcing_empmr_del2           =   3.3489871101137E-09
(PID.TID 0000.0001) %MON forcing_fu_max               =   8.3280275167294E-01
(PID.TID 0000.0001) %MON forcing_fu_min               =  -4.1065214714403E-01
(PID.TID 0000.0001) %MON forcing_fu_mean              =   6.3155960904645E-02
(PID.TID 0000.0001) %MON forcing_fu_sd                =   1.5494964609885E-01
(PID.TID 0000.0001) %MON forcing_fu_del2              =   3.3814370492815E-07
(PID.TID 0000.0001) %MON forcing_fv_max               =   3.9077928975268E-01
(PID.TID 0000.0001) %MON forcing_fv_min               =  -5.6641546110020E-01
(PID.TID 0000.0001) %MON forcing_fv_mean              =   1.0702878640744E-02
(PID.TID 0000.0001) %MON forcing_fv_sd                =   1.0154081768712E-01
(PID.TID 0000.0001) %MON forcing_fv_del2              =   2.4466009782118E-07
(PID.TID 0000.0001) %MON trAdv_CFL_u_max              =   7.8799435038402E-02
(PID.TID 0000.0001) %MON trAdv_CFL_v_max              =   1.1667211432200E-01
(PID.TID 0000.0001) %MON trAdv_CFL_w_max              =   5.3554435167775E-01
(PID.TID 0000.0001) %MON advcfl_uvel_max              =   7.8799433965477E-02
(PID.TID 0000.0001) %MON advcfl_vvel_max              =   1.1670642044656E-01
(PID.TID 0000.0001) %MON advcfl_wvel_max              =   5.3139284507560E-01
(PID.TID 0000.0001) %MON advcfl_W_hf_max              =   5.3554435167775E-01
(PID.TID 0000.0001) %MON pe_b_mean                    =  -6.8267708577488E-04
(PID.TID 0000.0001) %MON ke_max                       =   1.6946101183812E+00
(PID.TID 0000.0001) %MON ke_mean                      =   2.5592851527743E-03
(PID.TID 0000.0001) %MON ke_vol                       =   4.5818637279721E+16
(PID.TID 0000.0001) %MON vort_r_min                   =  -5.2966516088213E-04
(PID.TID 0000.0001) %MON vort_r_max                   =   5.0524663674090E-04
(PID.TID 0000.0001) %MON vort_a_mean                  =   8.2147633727901E-05
(PID.TID 0000.0001) %MON vort_a_sd                    =   1.0136416787172E-05
(PID.TID 0000.0001) %MON vort_p_mean                  =   8.4848855386883E-05
(PID.TID 0000.0001) %MON vort_p_sd                    =   3.4970793230122E-05
(PID.TID 0000.0001) %MON surfExpan_theta_mean         =  -2.5215637787660E-04
(PID.TID 0000.0001) %MON surfExpan_salt_mean          =  -7.9308777484675E-04
(PID.TID 0000.0001) // =======================================================
(PID.TID 0000.0001) // End MONITOR dynamic field statistics
(PID.TID 0000.0001) // =======================================================
(PID.TID 0000.0001) // =======================================================
(PID.TID 0000.0001) // Begin OBCS MONITOR field statistics
(PID.TID 0000.0001) // =======================================================
(PID.TID 0000.0001) %MON obc_N_vVel_max               =   6.9690396472723E-01
(PID.TID 0000.0001) %MON obc_N_vVel_min               =  -4.5305500289780E-01
(PID.TID 0000.0001) %MON obc_N_vVel_mean              =   1.4338880755561E-02
(PID.TID 0000.0001) %MON obc_N_vVel_sd                =   6.5291845075126E-02
(PID.TID 0000.0001) %MON obc_N_vVel_Int               =   2.0526228911603E+08
(PID.TID 0000.0001) %MON obc_S_vVel_max               =   1.5669836225639E+00
(PID.TID 0000.0001) %MON obc_S_vVel_min               =  -2.6118426630241E-01
(PID.TID 0000.0001) %MON obc_S_vVel_mean              =  -1.6524411793612E-03
(PID.TID 0000.0001) %MON obc_S_vVel_sd                =   3.6076334523263E-02
(PID.TID 0000.0001) %MON obc_S_vVel_Int               =  -5.0305101038698E+07
(PID.TID 0000.0001) %MON obc_N_theta_max              =   1.6390156227667E+01
(PID.TID 0000.0001) %MON obc_N_theta_min              =   1.8895911195086E+00
(PID.TID 0000.0001) %MON obc_N_theta_mean             =   5.1589214286885E+00
(PID.TID 0000.0001) %MON obc_N_theta_sd               =   3.4826596030751E+00
(PID.TID 0000.0001) %MON obc_S_theta_max              =   2.5544119318571E+01
(PID.TID 0000.0001) %MON obc_S_theta_min              =   1.4632988111847E+00
(PID.TID 0000.0001) %MON obc_S_theta_mean             =   5.4595513400148E+00
(PID.TID 0000.0001) %MON obc_S_theta_sd               =   5.3559060658268E+00
(PID.TID 0000.0001) %MON obc_N_salt_max               =   3.5910864381053E+01
(PID.TID 0000.0001) %MON obc_N_salt_min               =   3.3295058091112E+01
(PID.TID 0000.0001) %MON obc_N_salt_mean              =   3.5114561948457E+01
(PID.TID 0000.0001) %MON obc_N_salt_sd                =   3.0984837466746E-01
(PID.TID 0000.0001) %MON obc_S_salt_max               =   3.7318291555549E+01
(PID.TID 0000.0001) %MON obc_S_salt_min               =   3.4844694731580E+01
(PID.TID 0000.0001) %MON obc_S_salt_mean              =   3.5168372363502E+01
(PID.TID 0000.0001) %MON obc_S_salt_sd                =   4.5716829920709E-01
(PID.TID 0000.0001) // =======================================================
(PID.TID 0000.0001) // End OBCS MONITOR field statistics
(PID.TID 0000.0001) // =======================================================
(PID.TID 0000.0001)  EXF_INTERP_READ: opening file: era_forcing/ERA5_rain_2008
(PID.TID 0000.0001)  EXF_INTERP_READ: opening file: era_forcing/ERA5_dsw_2008
(PID.TID 0000.0001)  EXF_INTERP_READ: opening file: era_forcing/ERA5_dlw_2008
(PID.TID 0000.0001) // =======================================================
(PID.TID 0000.0001) // Begin MONITOR EXF statistics
(PID.TID 0000.0001) // =======================================================
(PID.TID 0000.0001) %MON exf_tsnumber                 =                     8
(PID.TID 0000.0001) %MON exf_time_sec                 =   1.9200000000000E+03
(PID.TID 0000.0001) %MON exf_ustress_max              =   8.4364598858299E-01
(PID.TID 0000.0001) %MON exf_ustress_min              =  -4.0798481492454E-01
(PID.TID 0000.0001) %MON exf_ustress_mean             =   6.3195249708638E-02
(PID.TID 0000.0001) %MON exf_ustress_sd               =   1.5485637527672E-01
(PID.TID 0000.0001) %MON exf_ustress_del2             =   3.8054270360962E-07
(PID.TID 0000.0001) %MON exf_vstress_max              =   3.9094033626006E-01
(PID.TID 0000.0001) %MON exf_vstress_min              =  -5.6295365826210E-01
(PID.TID 0000.0001) %MON exf_vstress_mean             =   1.0766608586207E-02
(PID.TID 0000.0001) %MON exf_vstress_sd               =   1.0139916195644E-01
(PID.TID 0000.0001) %MON exf_vstress_del2             =   2.6792604771789E-07
(PID.TID 0000.0001) %MON exf_hflux_max                =   1.1600565233730E+03
(PID.TID 0000.0001) %MON exf_hflux_min                =  -2.8615286058534E+02
(PID.TID 0000.0001) %MON exf_hflux_mean               =   2.3953489660133E+02
(PID.TID 0000.0001) %MON exf_hflux_sd                 =   1.4022714716665E+02
(PID.TID 0000.0001) %MON exf_hflux_del2               =   1.0894397573051E-01
(PID.TID 0000.0001) %MON exf_sflux_max                =   2.5586165650204E-07
(PID.TID 0000.0001) %MON exf_sflux_min                =  -1.7183933026057E-06
(PID.TID 0000.0001) %MON exf_sflux_mean               =   1.7314726490292E-08
(PID.TID 0000.0001) %MON exf_sflux_sd                 =   1.3420569540273E-07
(PID.TID 0000.0001) %MON exf_sflux_del2               =   5.4089285027008E-11
(PID.TID 0000.0001) %MON exf_uwind_max                =   1.9622418199664E+01
(PID.TID 0000.0001) %MON exf_uwind_min                =  -1.4900021458915E+01
(PID.TID 0000.0001) %MON exf_uwind_mean               =   2.4772577960002E+00
(PID.TID 0000.0001) %MON exf_uwind_sd                 =   6.6666028178283E+00
(PID.TID 0000.0001) %MON exf_uwind_del2               =   2.8383659318924E-03
(PID.TID 0000.0001) %MON exf_vwind_max                =   1.4394503098595E+01
(PID.TID 0000.0001) %MON exf_vwind_min                =  -1.2776116089919E+01
(PID.TID 0000.0001) %MON exf_vwind_mean               =   8.5863427070603E-01
(PID.TID 0000.0001) %MON exf_vwind_sd                 =   5.1769630114938E+00
(PID.TID 0000.0001) %MON exf_vwind_del2               =   2.0864134745242E-03
(PID.TID 0000.0001) %MON exf_wspeed_max               =   2.0302134842140E+01
(PID.TID 0000.0001) %MON exf_wspeed_min               =   3.1296739434420E-03
(PID.TID 0000.0001) %MON exf_wspeed_mean              =   7.7114327059960E+00
(PID.TID 0000.0001) %MON exf_wspeed_sd                =   4.3188428742686E+00
(PID.TID 0000.0001) %MON exf_wspeed_del2              =   3.5224208399550E-03
(PID.TID 0000.0001) %MON exf_atemp_max                =   2.9816024585792E+02
(PID.TID 0000.0001) %MON exf_atemp_min                =   2.7434694900651E+02
(PID.TID 0000.0001) %MON exf_atemp_mean               =   2.9067717714392E+02
(PID.TID 0000.0001) %MON exf_atemp_sd                 =   3.9439908504319E+00
(PID.TID 0000.0001) %MON exf_atemp_del2               =   6.8398384934223E-03
(PID.TID 0000.0001) %MON exf_aqh_max                  =   1.6766585126340E-02
(PID.TID 0000.0001) %MON exf_aqh_min                  =   2.7217053503686E-03
(PID.TID 0000.0001) %MON exf_aqh_mean                 =   9.4192672790309E-03
(PID.TID 0000.0001) %MON exf_aqh_sd                   =   2.8735677177259E-03
(PID.TID 0000.0001) %MON exf_aqh_del2                 =   3.7493261346545E-06
(PID.TID 0000.0001) %MON exf_lwflux_max               =   1.5286015198008E+02
(PID.TID 0000.0001) %MON exf_lwflux_min               =  -6.8273893942081E+00
(PID.TID 0000.0001) %MON exf_lwflux_mean              =   6.5420398846127E+01
(PID.TID 0000.0001) %MON exf_lwflux_sd                =   2.6803532726514E+01
(PID.TID 0000.0001) %MON exf_lwflux_del2              =   2.7144143894485E-02
(PID.TID 0000.0001) %MON exf_evap_max                 =   2.7967690632069E-07
(PID.TID 0000.0001) %MON exf_evap_min                 =  -9.5549390817184E-08
(PID.TID 0000.0001) %MON exf_evap_mean                =   5.9260649109483E-08
(PID.TID 0000.0001) %MON exf_evap_sd                  =   4.2032217035888E-08
(PID.TID 0000.0001) %MON exf_evap_del2                =   2.8550049176530E-11
(PID.TID 0000.0001) %MON exf_precip_max               =   1.8946560964359E-06
(PID.TID 0000.0001) %MON exf_precip_min               =   0.0000000000000E+00
(PID.TID 0000.0001) %MON exf_precip_mean              =   4.0357443213972E-08
(PID.TID 0000.0001) %MON exf_precip_sd                =   1.3917898192904E-07
(PID.TID 0000.0001) %MON exf_precip_del2              =   5.8637754918718E-11
(PID.TID 0000.0001) %MON exf_swflux_max               =   0.0000000000000E+00
(PID.TID 0000.0001) %MON exf_swflux_min               =   0.0000000000000E+00
(PID.TID 0000.0001) %MON exf_swflux_mean              =   0.0000000000000E+00
(PID.TID 0000.0001) %MON exf_swflux_sd                =   0.0000000000000E+00
(PID.TID 0000.0001) %MON exf_swflux_del2              =   0.0000000000000E+00
(PID.TID 0000.0001) %MON exf_swdown_max               =   0.0000000000000E+00
(PID.TID 0000.0001) %MON exf_swdown_min               =   0.0000000000000E+00
(PID.TID 0000.0001) %MON exf_swdown_mean              =   0.0000000000000E+00
(PID.TID 0000.0001) %MON exf_swdown_sd                =   0.0000000000000E+00
(PID.TID 0000.0001) %MON exf_swdown_del2              =   0.0000000000000E+00
(PID.TID 0000.0001) %MON exf_lwdown_max               =   4.1825042980031E+02
(PID.TID 0000.0001) %MON exf_lwdown_min               =   2.2314382656222E+02
(PID.TID 0000.0001) %MON exf_lwdown_mean              =   3.4962240595456E+02
(PID.TID 0000.0001) %MON exf_lwdown_sd                =   3.1990071459670E+01
(PID.TID 0000.0001) %MON exf_lwdown_del2              =   1.3541860043837E-01
(PID.TID 0000.0001) %MON exf_apressure_max            =   1.0279973710513E+05
(PID.TID 0000.0001) %MON exf_apressure_min            =   1.0000974426508E+05
(PID.TID 0000.0001) %MON exf_apressure_mean           =   1.0216529723281E+05
(PID.TID 0000.0001) %MON exf_apressure_sd             =   4.9888638326062E+02
(PID.TID 0000.0001) %MON exf_apressure_del2           =   3.9519715493445E+01
(PID.TID 0000.0001) %MON exf_runoff_max               =   4.4374791284855E-08
(PID.TID 0000.0001) %MON exf_runoff_min               =   0.0000000000000E+00
(PID.TID 0000.0001) %MON exf_runoff_mean              =   1.5884794052194E-09
(PID.TID 0000.0001) %MON exf_runoff_sd                =   5.3901957917178E-09
(PID.TID 0000.0001) %MON exf_runoff_del2              =   2.2191214937507E-12
(PID.TID 0000.0001) // =======================================================
(PID.TID 0000.0001) // End MONITOR EXF statistics
(PID.TID 0000.0001) // =======================================================
 cg2d: Sum(rhs),rhsMax =   1.07274877122416E+03  1.67933958459945E-01
(PID.TID 0000.0001)      cg2d_init_res =   1.61315618913018E+00
(PID.TID 0000.0001)      cg2d_iters(min,last) =      -1     315
(PID.TID 0000.0001)      cg2d_last_res =   6.47829362564333E-12
(PID.TID 0000.0001) // =======================================================
(PID.TID 0000.0001) // Begin MONITOR dynamic field statistics
(PID.TID 0000.0001) // =======================================================
(PID.TID 0000.0001) %MON time_tsnumber                =                     9
(PID.TID 0000.0001) %MON time_secondsf                =   2.1600000000000E+03
(PID.TID 0000.0001) %MON dynstat_eta_max              =   1.1813869260180E+00
(PID.TID 0000.0001) %MON dynstat_eta_min              =  -1.7056081756713E+00
(PID.TID 0000.0001) %MON dynstat_eta_mean             =  -3.6481075912311E-02
(PID.TID 0000.0001) %MON dynstat_eta_sd               =   2.3262816933984E-01
(PID.TID 0000.0001) %MON dynstat_eta_del2             =   2.5457479294040E-06
(PID.TID 0000.0001) %MON dynstat_uvel_max             =   1.2959052840972E+00
(PID.TID 0000.0001) %MON dynstat_uvel_min             =  -8.2056225862273E-01
(PID.TID 0000.0001) %MON dynstat_uvel_mean            =   2.4643131321274E-03
(PID.TID 0000.0001) %MON dynstat_uvel_sd              =   5.2314030333500E-02
(PID.TID 0000.0001) %MON dynstat_uvel_del2            =   5.1165213044647E-07
(PID.TID 0000.0001) %MON dynstat_vvel_max             =   1.8418812939300E+00
(PID.TID 0000.0001) %MON dynstat_vvel_min             =  -9.1731492554157E-01
(PID.TID 0000.0001) %MON dynstat_vvel_mean            =  -3.6156701163328E-03
(PID.TID 0000.0001) %MON dynstat_vvel_sd              =   4.9136714959257E-02
(PID.TID 0000.0001) %MON dynstat_vvel_del2            =   4.6328282710229E-07
(PID.TID 0000.0001) %MON dynstat_wvel_max             =   3.5177364072990E-02
(PID.TID 0000.0001) %MON dynstat_wvel_min             =  -2.9013800354323E-02
(PID.TID 0000.0001) %MON dynstat_wvel_mean            =  -1.3523640199428E-05
(PID.TID 0000.0001) %MON dynstat_wvel_sd              =   5.9994275848920E-04
(PID.TID 0000.0001) %MON dynstat_wvel_del2            =   7.5658866542577E-08
(PID.TID 0000.0001) %MON dynstat_theta_max            =   2.6139585560551E+01
(PID.TID 0000.0001) %MON dynstat_theta_min            =   1.4688646544924E+00
(PID.TID 0000.0001) %MON dynstat_theta_mean           =   5.5098615406788E+00
(PID.TID 0000.0001) %MON dynstat_theta_sd             =   4.7733499622319E+00
(PID.TID 0000.0001) %MON dynstat_theta_del2           =   4.0204444079758E-06
(PID.TID 0000.0001) %MON dynstat_salt_max             =   3.9163812274883E+01
(PID.TID 0000.0001) %MON dynstat_salt_min             =   3.3096082377256E+01
(PID.TID 0000.0001) %MON dynstat_salt_mean            =   3.5173366390001E+01
(PID.TID 0000.0001) %MON dynstat_salt_sd              =   3.7891219701624E-01
(PID.TID 0000.0001) %MON dynstat_salt_del2            =   5.1721982345163E-07
(PID.TID 0000.0001) %MON forcing_qnet_max             =   1.1777445129501E+03
(PID.TID 0000.0001) %MON forcing_qnet_min             =  -2.9095403095285E+02
(PID.TID 0000.0001) %MON forcing_qnet_mean            =   2.4166672991227E+02
(PID.TID 0000.0001) %MON forcing_qnet_sd              =   1.4197725468846E+02
(PID.TID 0000.0001) %MON forcing_qnet_del2            =   1.6715599488308E-03
(PID.TID 0000.0001) %MON forcing_qsw_max              =   0.0000000000000E+00
(PID.TID 0000.0001) %MON forcing_qsw_min              =   0.0000000000000E+00
(PID.TID 0000.0001) %MON forcing_qsw_mean             =   0.0000000000000E+00
(PID.TID 0000.0001) %MON forcing_qsw_sd               =   0.0000000000000E+00
(PID.TID 0000.0001) %MON forcing_qsw_del2             =   0.0000000000000E+00
(PID.TID 0000.0001) %MON forcing_empmr_max            =   2.5586165650204E-04
(PID.TID 0000.0001) %MON forcing_empmr_min            =  -1.7183933026057E-03
(PID.TID 0000.0001) %MON forcing_empmr_mean           =   1.7314726490292E-05
(PID.TID 0000.0001) %MON forcing_empmr_sd             =   1.3420569540274E-04
(PID.TID 0000.0001) %MON forcing_empmr_del2           =   3.3580470381323E-09
(PID.TID 0000.0001) %MON forcing_fu_max               =   8.4293757328099E-01
(PID.TID 0000.0001) %MON forcing_fu_min               =  -4.0796685169877E-01
(PID.TID 0000.0001) %MON forcing_fu_mean              =   6.3254524716642E-02
(PID.TID 0000.0001) %MON forcing_fu_sd                =   1.5491634058599E-01
(PID.TID 0000.0001) %MON forcing_fu_del2              =   3.3946261117270E-07
(PID.TID 0000.0001) %MON forcing_fv_max               =   3.9088037318520E-01
(PID.TID 0000.0001) %MON forcing_fv_min               =  -5.6667010519201E-01
(PID.TID 0000.0001) %MON forcing_fv_mean              =   1.0748078292881E-02
(PID.TID 0000.0001) %MON forcing_fv_sd                =   1.0153097217948E-01
(PID.TID 0000.0001) %MON forcing_fv_del2              =   2.4765364261079E-07
(PID.TID 0000.0001) %MON trAdv_CFL_u_max              =   7.8623562222792E-02
(PID.TID 0000.0001) %MON trAdv_CFL_v_max              =   1.1686543590060E-01
(PID.TID 0000.0001) %MON trAdv_CFL_w_max              =   5.3019409428900E-01
(PID.TID 0000.0001) %MON advcfl_uvel_max              =   7.8623561152261E-02
(PID.TID 0000.0001) %MON advcfl_vvel_max              =   1.1689979886920E-01
(PID.TID 0000.0001) %MON advcfl_wvel_max              =   5.2608406255033E-01
(PID.TID 0000.0001) %MON advcfl_W_hf_max              =   5.3019409428900E-01
(PID.TID 0000.0001) %MON pe_b_mean                    =  -8.1822537248855E-04
(PID.TID 0000.0001) %MON ke_max                       =   1.7005633921483E+00
(PID.TID 0000.0001) %MON ke_mean                      =   2.5660733197154E-03
(PID.TID 0000.0001) %MON ke_vol                       =   4.5818637279721E+16
(PID.TID 0000.0001) %MON vort_r_min                   =  -5.3154676467032E-04
(PID.TID 0000.0001) %MON vort_r_max                   =   5.1266322492755E-04
(PID.TID 0000.0001) %MON vort_a_mean                  =   8.2147633031000E-05
(PID.TID 0000.0001) %MON vort_a_sd                    =   1.0140199223784E-05
(PID.TID 0000.0001) %MON vort_p_mean                  =   8.4848854667065E-05
(PID.TID 0000.0001) %MON vort_p_sd                    =   3.4972002728035E-05
(PID.TID 0000.0001) %MON surfExpan_theta_mean         =  -2.9597983550321E-04
(PID.TID 0000.0001) %MON surfExpan_salt_mean          =  -8.6058296468349E-04
(PID.TID 0000.0001) // =======================================================
(PID.TID 0000.0001) // End MONITOR dynamic field statistics
(PID.TID 0000.0001) // =======================================================
(PID.TID 0000.0001) // =======================================================
(PID.TID 0000.0001) // Begin OBCS MONITOR field statistics
(PID.TID 0000.0001) // =======================================================
(PID.TID 0000.0001) %MON obc_N_vVel_max               =   6.9674792219296E-01
(PID.TID 0000.0001) %MON obc_N_vVel_min               =  -4.5298393839057E-01
(PID.TID 0000.0001) %MON obc_N_vVel_mean              =   1.4313680030564E-02
(PID.TID 0000.0001) %MON obc_N_vVel_sd                =   6.5258947573351E-02
(PID.TID 0000.0001) %MON obc_N_vVel_Int               =   2.0490153860917E+08
(PID.TID 0000.0001) %MON obc_S_vVel_max               =   1.5681971789632E+00
(PID.TID 0000.0001) %MON obc_S_vVel_min               =  -2.6125040862260E-01
(PID.TID 0000.0001) %MON obc_S_vVel_mean              =  -2.3457029342460E-03
(PID.TID 0000.0001) %MON obc_S_vVel_sd                =   3.6108799784550E-02
(PID.TID 0000.0001) %MON obc_S_vVel_Int               =  -7.1409999089730E+07
(PID.TID 0000.0001) %MON obc_N_theta_max              =   1.6390068125480E+01
(PID.TID 0000.0001) %MON obc_N_theta_min              =   1.8895911685740E+00
(PID.TID 0000.0001) %MON obc_N_theta_mean             =   5.1589140445385E+00
(PID.TID 0000.0001) %MON obc_N_theta_sd               =   3.4826503119707E+00
(PID.TID 0000.0001) %MON obc_S_theta_max              =   2.5544016569792E+01
(PID.TID 0000.0001) %MON obc_S_theta_min              =   1.4632992074720E+00
(PID.TID 0000.0001) %MON obc_S_theta_mean             =   5.4595505349902E+00
(PID.TID 0000.0001) %MON obc_S_theta_sd               =   5.3559021947514E+00
(PID.TID 0000.0001) %MON obc_N_salt_max               =   3.5910863972689E+01
(PID.TID 0000.0001) %MON obc_N_salt_min               =   3.3295063593745E+01
(PID.TID 0000.0001) %MON obc_N_salt_mean              =   3.5114561652470E+01
(PID.TID 0000.0001) %MON obc_N_salt_sd                =   3.0984825547911E-01
(PID.TID 0000.0001) %MON obc_S_salt_max               =   3.7318284671165E+01
(PID.TID 0000.0001) %MON obc_S_salt_min               =   3.4844694783800E+01
(PID.TID 0000.0001) %MON obc_S_salt_mean              =   3.5168372291585E+01
(PID.TID 0000.0001) %MON obc_S_salt_sd                =   4.5716794816063E-01
(PID.TID 0000.0001) // =======================================================
(PID.TID 0000.0001) // End OBCS MONITOR field statistics
(PID.TID 0000.0001) // =======================================================
(PID.TID 0000.0001) // =======================================================
(PID.TID 0000.0001) // Begin MONITOR EXF statistics
(PID.TID 0000.0001) // =======================================================
(PID.TID 0000.0001) %MON exf_tsnumber                 =                     9
(PID.TID 0000.0001) %MON exf_time_sec                 =   2.1600000000000E+03
(PID.TID 0000.0001) %MON exf_ustress_max              =   8.5442136946524E-01
(PID.TID 0000.0001) %MON exf_ustress_min              =  -4.0541967882953E-01
(PID.TID 0000.0001) %MON exf_ustress_mean             =   6.3317694077498E-02
(PID.TID 0000.0001) %MON exf_ustress_sd               =   1.5489626783126E-01
(PID.TID 0000.0001) %MON exf_ustress_del2             =   3.8504644078026E-07
(PID.TID 0000.0001) %MON exf_vstress_max              =   3.9240559271116E-01
(PID.TID 0000.0001) %MON exf_vstress_min              =  -5.6370168664641E-01
(PID.TID 0000.0001) %MON exf_vstress_mean             =   1.0819055430958E-02
(PID.TID 0000.0001) %MON exf_vstress_sd               =   1.0145620225307E-01
(PID.TID 0000.0001) %MON exf_vstress_del2             =   2.7400071739875E-07
(PID.TID 0000.0001) %MON exf_hflux_max                =   1.1664563617286E+03
(PID.TID 0000.0001) %MON exf_hflux_min                =  -2.8860244506840E+02
(PID.TID 0000.0001) %MON exf_hflux_mean               =   2.3952112729032E+02
(PID.TID 0000.0001) %MON exf_hflux_sd                 =   1.4031541662529E+02
(PID.TID 0000.0001) %MON exf_hflux_del2               =   1.0897401639524E-01
(PID.TID 0000.0001) %MON exf_sflux_max                =   2.5653237761180E-07
(PID.TID 0000.0001) %MON exf_sflux_min                =  -1.7372089869156E-06
(PID.TID 0000.0001) %MON exf_sflux_mean               =   1.7065553973633E-08
(PID.TID 0000.0001) %MON exf_sflux_sd                 =   1.3329311254868E-07
(PID.TID 0000.0001) %MON exf_sflux_del2               =   5.3574585308319E-11
(PID.TID 0000.0001) %MON exf_uwind_max                =   1.9727526430708E+01
(PID.TID 0000.0001) %MON exf_uwind_min                =  -1.4871055240138E+01
(PID.TID 0000.0001) %MON exf_uwind_mean               =   2.4791060614643E+00
(PID.TID 0000.0001) %MON exf_uwind_sd                 =   6.6661010123767E+00
(PID.TID 0000.0001) %MON exf_uwind_del2               =   2.8384246745079E-03
(PID.TID 0000.0001) %MON exf_vwind_max                =   1.4424950776514E+01
(PID.TID 0000.0001) %MON exf_vwind_min                =  -1.2781783368007E+01
(PID.TID 0000.0001) %MON exf_vwind_mean               =   8.6036436689072E-01
(PID.TID 0000.0001) %MON exf_vwind_sd                 =   5.1759120867812E+00
(PID.TID 0000.0001) %MON exf_vwind_del2               =   2.0864367595256E-03
(PID.TID 0000.0001) %MON exf_wspeed_max               =   2.0284791079960E+01
(PID.TID 0000.0001) %MON exf_wspeed_min               =   1.2415971173597E-02
(PID.TID 0000.0001) %MON exf_wspeed_mean              =   7.7101319080776E+00
(PID.TID 0000.0001) %MON exf_wspeed_sd                =   4.3205356502574E+00
(PID.TID 0000.0001) %MON exf_wspeed_del2              =   3.5224791167337E-03
(PID.TID 0000.0001) %MON exf_atemp_max                =   2.9815804856951E+02
(PID.TID 0000.0001) %MON exf_atemp_min                =   2.7432134779787E+02
(PID.TID 0000.0001) %MON exf_atemp_mean               =   2.9067405593773E+02
(PID.TID 0000.0001) %MON exf_atemp_sd                 =   3.9444520568666E+00
(PID.TID 0000.0001) %MON exf_atemp_del2               =   6.8386549877382E-03
(PID.TID 0000.0001) %MON exf_aqh_max                  =   1.6759598825467E-02
(PID.TID 0000.0001) %MON exf_aqh_min                  =   2.7194106526046E-03
(PID.TID 0000.0001) %MON exf_aqh_mean                 =   9.4180791262168E-03
(PID.TID 0000.0001) %MON exf_aqh_sd                   =   2.8742704570836E-03
(PID.TID 0000.0001) %MON exf_aqh_del2                 =   3.7488797611757E-06
(PID.TID 0000.0001) %MON exf_lwflux_max               =   1.5313199184451E+02
(PID.TID 0000.0001) %MON exf_lwflux_min               =  -4.6269337493435E+00
(PID.TID 0000.0001) %MON exf_lwflux_mean              =   6.5401915222490E+01
(PID.TID 0000.0001) %MON exf_lwflux_sd                =   2.6703189423892E+01
(PID.TID 0000.0001) %MON exf_lwflux_del2              =   2.7119699396463E-02
(PID.TID 0000.0001) %MON exf_evap_max                 =   2.8139521221824E-07
(PID.TID 0000.0001) %MON exf_evap_min                 =  -9.6359486056299E-08
(PID.TID 0000.0001) %MON exf_evap_mean                =   5.9254611865052E-08
(PID.TID 0000.0001) %MON exf_evap_sd                  =   4.2034379006791E-08
(PID.TID 0000.0001) %MON exf_evap_del2                =   2.8553861580483E-11
(PID.TID 0000.0001) %MON exf_precip_max               =   1.9141066233964E-06
(PID.TID 0000.0001) %MON exf_precip_min               =   0.0000000000000E+00
(PID.TID 0000.0001) %MON exf_precip_mean              =   4.0600578486200E-08
(PID.TID 0000.0001) %MON exf_precip_sd                =   1.3843006107081E-07
(PID.TID 0000.0001) %MON exf_precip_del2              =   5.8245473505235E-11
(PID.TID 0000.0001) %MON exf_swflux_max               =   0.0000000000000E+00
(PID.TID 0000.0001) %MON exf_swflux_min               =   0.0000000000000E+00
(PID.TID 0000.0001) %MON exf_swflux_mean              =   0.0000000000000E+00
(PID.TID 0000.0001) %MON exf_swflux_sd                =   0.0000000000000E+00
(PID.TID 0000.0001) %MON exf_swflux_del2              =   0.0000000000000E+00
(PID.TID 0000.0001) %MON exf_swdown_max               =   0.0000000000000E+00
(PID.TID 0000.0001) %MON exf_swdown_min               =   0.0000000000000E+00
(PID.TID 0000.0001) %MON exf_swdown_mean              =   0.0000000000000E+00
(PID.TID 0000.0001) %MON exf_swdown_sd                =   0.0000000000000E+00
(PID.TID 0000.0001) %MON exf_swdown_del2              =   0.0000000000000E+00
(PID.TID 0000.0001) %MON exf_lwdown_max               =   4.1828155240958E+02
(PID.TID 0000.0001) %MON exf_lwdown_min               =   2.2358340796167E+02
(PID.TID 0000.0001) %MON exf_lwdown_mean              =   3.4963689710756E+02
(PID.TID 0000.0001) %MON exf_lwdown_sd                =   3.1864235004662E+01
(PID.TID 0000.0001) %MON exf_lwdown_del2              =   1.3542076220153E-01
(PID.TID 0000.0001) %MON exf_apressure_max            =   1.0280269188821E+05
(PID.TID 0000.0001) %MON exf_apressure_min            =   1.0001241170265E+05
(PID.TID 0000.0001) %MON exf_apressure_mean           =   1.0216607453936E+05
(PID.TID 0000.0001) %MON exf_apressure_sd             =   4.9880298184990E+02
(PID.TID 0000.0001) %MON exf_apressure_del2           =   3.9520022984619E+01
(PID.TID 0000.0001) %MON exf_runoff_max               =   4.4374791284855E-08
(PID.TID 0000.0001) %MON exf_runoff_min               =   0.0000000000000E+00
(PID.TID 0000.0001) %MON exf_runoff_mean              =   1.5884794052194E-09
(PID.TID 0000.0001) %MON exf_runoff_sd                =   5.3901957917178E-09
(PID.TID 0000.0001) %MON exf_runoff_del2              =   2.2191214937507E-12
(PID.TID 0000.0001) // =======================================================
(PID.TID 0000.0001) // End MONITOR EXF statistics
(PID.TID 0000.0001) // =======================================================
 cg2d: Sum(rhs),rhsMax =   1.25804528771483E+03  1.48817555051007E-01
(PID.TID 0000.0001)      cg2d_init_res =   1.67004599104541E+00
(PID.TID 0000.0001)      cg2d_iters(min,last) =      -1     314
(PID.TID 0000.0001)      cg2d_last_res =   6.70427897049404E-12
(PID.TID 0000.0001) // =======================================================
(PID.TID 0000.0001) // Begin MONITOR dynamic field statistics
(PID.TID 0000.0001) // =======================================================
(PID.TID 0000.0001) %MON time_tsnumber                =                    10
(PID.TID 0000.0001) %MON time_secondsf                =   2.4000000000000E+03
(PID.TID 0000.0001) %MON dynstat_eta_max              =   1.1719846892572E+00
(PID.TID 0000.0001) %MON dynstat_eta_min              =  -1.6702079506850E+00
(PID.TID 0000.0001) %MON dynstat_eta_mean             =  -4.2782473281118E-02
(PID.TID 0000.0001) %MON dynstat_eta_sd               =   2.4398167818249E-01
(PID.TID 0000.0001) %MON dynstat_eta_del2             =   2.5112801570160E-06
(PID.TID 0000.0001) %MON dynstat_uvel_max             =   1.2914299581623E+00
(PID.TID 0000.0001) %MON dynstat_uvel_min             =  -7.6940965638884E-01
(PID.TID 0000.0001) %MON dynstat_uvel_mean            =   2.2345147893006E-03
(PID.TID 0000.0001) %MON dynstat_uvel_sd              =   5.2296243990790E-02
(PID.TID 0000.0001) %MON dynstat_uvel_del2            =   5.2256601670342E-07
(PID.TID 0000.0001) %MON dynstat_vvel_max             =   1.8433514619418E+00
(PID.TID 0000.0001) %MON dynstat_vvel_min             =  -9.1852314463155E-01
(PID.TID 0000.0001) %MON dynstat_vvel_mean            =  -3.8807712333409E-03
(PID.TID 0000.0001) %MON dynstat_vvel_sd              =   4.9275820558882E-02
(PID.TID 0000.0001) %MON dynstat_vvel_del2            =   4.7222479888747E-07
(PID.TID 0000.0001) %MON dynstat_wvel_max             =   3.4682478187441E-02
(PID.TID 0000.0001) %MON dynstat_wvel_min             =  -3.0236684503616E-02
(PID.TID 0000.0001) %MON dynstat_wvel_mean            =  -1.4646871218863E-05
(PID.TID 0000.0001) %MON dynstat_wvel_sd              =   6.0405898057021E-04
(PID.TID 0000.0001) %MON dynstat_wvel_del2            =   7.5488275252784E-08
(PID.TID 0000.0001) %MON dynstat_theta_max            =   2.6141349440487E+01
(PID.TID 0000.0001) %MON dynstat_theta_min            =   1.4688648138677E+00
(PID.TID 0000.0001) %MON dynstat_theta_mean           =   5.5098687252851E+00
(PID.TID 0000.0001) %MON dynstat_theta_sd             =   4.7733428350634E+00
(PID.TID 0000.0001) %MON dynstat_theta_del2           =   4.0236278658050E-06
(PID.TID 0000.0001) %MON dynstat_salt_max             =   3.9160113546954E+01
(PID.TID 0000.0001) %MON dynstat_salt_min             =   3.3097047856095E+01
(PID.TID 0000.0001) %MON dynstat_salt_mean            =   3.5173366354675E+01
(PID.TID 0000.0001) %MON dynstat_salt_sd              =   3.7891294081254E-01
(PID.TID 0000.0001) %MON dynstat_salt_del2            =   5.2058378153471E-07
(PID.TID 0000.0001) %MON forcing_qnet_max             =   1.1843528946073E+03
(PID.TID 0000.0001) %MON forcing_qnet_min             =  -2.9341125387651E+02
(PID.TID 0000.0001) %MON forcing_qnet_mean            =   2.4163588483829E+02
(PID.TID 0000.0001) %MON forcing_qnet_sd              =   1.4204346872972E+02
(PID.TID 0000.0001) %MON forcing_qnet_del2            =   1.6644704807655E-03
(PID.TID 0000.0001) %MON forcing_qsw_max              =   0.0000000000000E+00
(PID.TID 0000.0001) %MON forcing_qsw_min              =   0.0000000000000E+00
(PID.TID 0000.0001) %MON forcing_qsw_mean             =   0.0000000000000E+00
(PID.TID 0000.0001) %MON forcing_qsw_sd               =   0.0000000000000E+00
(PID.TID 0000.0001) %MON forcing_qsw_del2             =   0.0000000000000E+00
(PID.TID 0000.0001) %MON forcing_empmr_max            =   2.5653237761180E-04
(PID.TID 0000.0001) %MON forcing_empmr_min            =  -1.7372089869156E-03
(PID.TID 0000.0001) %MON forcing_empmr_mean           =   1.7065553973633E-05
(PID.TID 0000.0001) %MON forcing_empmr_sd             =   1.3329311254868E-04
(PID.TID 0000.0001) %MON forcing_empmr_del2           =   3.1667319212442E-09
(PID.TID 0000.0001) %MON forcing_fu_max               =   8.5408468969377E-01
(PID.TID 0000.0001) %MON forcing_fu_min               =  -4.0533179395042E-01
(PID.TID 0000.0001) %MON forcing_fu_mean              =   6.3377455462623E-02
(PID.TID 0000.0001) %MON forcing_fu_sd                =   1.5495639421192E-01
(PID.TID 0000.0001) %MON forcing_fu_del2              =   3.4469099881763E-07
(PID.TID 0000.0001) %MON forcing_fv_max               =   3.9221810806698E-01
(PID.TID 0000.0001) %MON forcing_fv_min               =  -5.6761025480434E-01
(PID.TID 0000.0001) %MON forcing_fv_mean              =   1.0800869131770E-02
(PID.TID 0000.0001) %MON forcing_fv_sd                =   1.0158820612305E-01
(PID.TID 0000.0001) %MON forcing_fv_del2              =   2.5373044920376E-07
(PID.TID 0000.0001) %MON trAdv_CFL_u_max              =   7.8352040784125E-02
(PID.TID 0000.0001) %MON trAdv_CFL_v_max              =   1.1695871651870E-01
(PID.TID 0000.0001) %MON trAdv_CFL_w_max              =   5.0968300196731E-01
(PID.TID 0000.0001) %MON advcfl_uvel_max              =   7.8352039717291E-02
(PID.TID 0000.0001) %MON advcfl_vvel_max              =   1.1699310691541E-01
(PID.TID 0000.0001) %MON advcfl_wvel_max              =   5.0573197094431E-01
(PID.TID 0000.0001) %MON advcfl_W_hf_max              =   5.0968300196731E-01
(PID.TID 0000.0001) %MON pe_b_mean                    =  -9.6445025028174E-04
(PID.TID 0000.0001) %MON ke_max                       =   1.7034444995311E+00
(PID.TID 0000.0001) %MON ke_mean                      =   2.5724071227882E-03
(PID.TID 0000.0001) %MON ke_vol                       =   4.5818637279721E+16
(PID.TID 0000.0001) %MON vort_r_min                   =  -5.3340017405867E-04
(PID.TID 0000.0001) %MON vort_r_max                   =   5.2241034069426E-04
(PID.TID 0000.0001) %MON vort_a_mean                  =   8.2147632324128E-05
(PID.TID 0000.0001) %MON vort_a_sd                    =   1.0143977867891E-05
(PID.TID 0000.0001) %MON vort_p_mean                  =   8.4848853936950E-05
(PID.TID 0000.0001) %MON vort_p_sd                    =   3.4973864300438E-05
(PID.TID 0000.0001) %MON surfExpan_theta_mean         =  -3.3932796389677E-04
(PID.TID 0000.0001) %MON surfExpan_salt_mean          =  -9.2684588589338E-04
(PID.TID 0000.0001) // =======================================================
(PID.TID 0000.0001) // End MONITOR dynamic field statistics
(PID.TID 0000.0001) // =======================================================
(PID.TID 0000.0001) // =======================================================
(PID.TID 0000.0001) // Begin OBCS MONITOR field statistics
(PID.TID 0000.0001) // =======================================================
(PID.TID 0000.0001) %MON obc_N_vVel_max               =   6.9657215163783E-01
(PID.TID 0000.0001) %MON obc_N_vVel_min               =  -4.5267506344918E-01
(PID.TID 0000.0001) %MON obc_N_vVel_mean              =   1.4273646118184E-02
(PID.TID 0000.0001) %MON obc_N_vVel_sd                =   6.5224052944374E-02
(PID.TID 0000.0001) %MON obc_N_vVel_Int               =   2.0432844977209E+08
(PID.TID 0000.0001) %MON obc_S_vVel_max               =   1.5694393541903E+00
(PID.TID 0000.0001) %MON obc_S_vVel_min               =  -2.6131051527258E-01
(PID.TID 0000.0001) %MON obc_S_vVel_mean              =  -3.0352164432702E-03
(PID.TID 0000.0001) %MON obc_S_vVel_sd                =   3.6145256901358E-02
(PID.TID 0000.0001) %MON obc_S_vVel_Int               =  -9.2400789668079E+07
(PID.TID 0000.0001) %MON obc_N_theta_max              =   1.6389980023293E+01
(PID.TID 0000.0001) %MON obc_N_theta_min              =   1.8895912176394E+00
(PID.TID 0000.0001) %MON obc_N_theta_mean             =   5.1589066603884E+00
(PID.TID 0000.0001) %MON obc_N_theta_sd               =   3.4826410211044E+00
(PID.TID 0000.0001) %MON obc_S_theta_max              =   2.5543913821012E+01
(PID.TID 0000.0001) %MON obc_S_theta_min              =   1.4632996037592E+00
(PID.TID 0000.0001) %MON obc_S_theta_mean             =   5.4595497299657E+00
(PID.TID 0000.0001) %MON obc_S_theta_sd               =   5.3558983237118E+00
(PID.TID 0000.0001) %MON obc_N_salt_max               =   3.5910863564326E+01
(PID.TID 0000.0001) %MON obc_N_salt_min               =   3.3295069096378E+01
(PID.TID 0000.0001) %MON obc_N_salt_mean              =   3.5114561356483E+01
(PID.TID 0000.0001) %MON obc_N_salt_sd                =   3.0984813632874E-01
(PID.TID 0000.0001) %MON obc_S_salt_max               =   3.7318277786781E+01
(PID.TID 0000.0001) %MON obc_S_salt_min               =   3.4844694836021E+01
(PID.TID 0000.0001) %MON obc_S_salt_mean              =   3.5168372219668E+01
(PID.TID 0000.0001) %MON obc_S_salt_sd                =   4.5716759712294E-01
(PID.TID 0000.0001) // =======================================================
(PID.TID 0000.0001) // End OBCS MONITOR field statistics
(PID.TID 0000.0001) // =======================================================
(PID.TID 0000.0001) // =======================================================
(PID.TID 0000.0001) // Begin MONITOR EXF statistics
(PID.TID 0000.0001) // =======================================================
(PID.TID 0000.0001) %MON exf_tsnumber                 =                    10
(PID.TID 0000.0001) %MON exf_time_sec                 =   2.4000000000000E+03
(PID.TID 0000.0001) %MON exf_ustress_max              =   8.6576560161926E-01
(PID.TID 0000.0001) %MON exf_ustress_min              =  -4.0289755489537E-01
(PID.TID 0000.0001) %MON exf_ustress_mean             =   6.3464362477728E-02
(PID.TID 0000.0001) %MON exf_ustress_sd               =   1.5500836831921E-01
(PID.TID 0000.0001) %MON exf_ustress_del2             =   3.9233444039264E-07
(PID.TID 0000.0001) %MON exf_vstress_max              =   3.9464094521599E-01
(PID.TID 0000.0001) %MON exf_vstress_min              =  -5.6468582379236E-01
(PID.TID 0000.0001) %MON exf_vstress_mean             =   1.0877453170751E-02
(PID.TID 0000.0001) %MON exf_vstress_sd               =   1.0157803474165E-01
(PID.TID 0000.0001) %MON exf_vstress_del2             =   2.8318494307959E-07
(PID.TID 0000.0001) %MON exf_hflux_max                =   1.1730796569627E+03
(PID.TID 0000.0001) %MON exf_hflux_min                =  -2.9119818896226E+02
(PID.TID 0000.0001) %MON exf_hflux_mean               =   2.3953074103328E+02
(PID.TID 0000.0001) %MON exf_hflux_sd                 =   1.4044278637513E+02
(PID.TID 0000.0001) %MON exf_hflux_del2               =   1.0902129932839E-01
(PID.TID 0000.0001) %MON exf_sflux_max                =   2.5723307947830E-07
(PID.TID 0000.0001) %MON exf_sflux_min                =  -1.7560212113219E-06
(PID.TID 0000.0001) %MON exf_sflux_mean               =   1.6823959129300E-08
(PID.TID 0000.0001) %MON exf_sflux_sd                 =   1.3268289766145E-07
(PID.TID 0000.0001) %MON exf_sflux_del2               =   5.3187601034148E-11
(PID.TID 0000.0001) %MON exf_uwind_max                =   1.9833851388558E+01
(PID.TID 0000.0001) %MON exf_uwind_min                =  -1.4843342032600E+01
(PID.TID 0000.0001) %MON exf_uwind_mean               =   2.4809856586673E+00
(PID.TID 0000.0001) %MON exf_uwind_sd                 =   6.6663261480225E+00
(PID.TID 0000.0001) %MON exf_uwind_del2               =   2.8387564642108E-03
(PID.TID 0000.0001) %MON exf_vwind_max                =   1.4470180871764E+01
(PID.TID 0000.0001) %MON exf_vwind_min                =  -1.2790978218869E+01
(PID.TID 0000.0001) %MON exf_vwind_mean               =   8.6207744209475E-01
(PID.TID 0000.0001) %MON exf_vwind_sd                 =   5.1763804247081E+00
(PID.TID 0000.0001) %MON exf_vwind_del2               =   2.0870693306054E-03
(PID.TID 0000.0001) %MON exf_wspeed_max               =   2.0269540974332E+01
(PID.TID 0000.0001) %MON exf_wspeed_min               =   7.7279606038067E-03
(PID.TID 0000.0001) %MON exf_wspeed_mean              =   7.7099698736451E+00
(PID.TID 0000.0001) %MON exf_wspeed_sd                =   4.3231528443112E+00
(PID.TID 0000.0001) %MON exf_wspeed_del2              =   3.5231147903669E-03
(PID.TID 0000.0001) %MON exf_atemp_max                =   2.9815585128109E+02
(PID.TID 0000.0001) %MON exf_atemp_min                =   2.7429574658923E+02
(PID.TID 0000.0001) %MON exf_atemp_mean               =   2.9067093473153E+02
(PID.TID 0000.0001) %MON exf_atemp_sd                 =   3.9450556500922E+00
(PID.TID 0000.0001) %MON exf_atemp_del2               =   6.8374852327902E-03
(PID.TID 0000.0001) %MON exf_aqh_max                  =   1.6752612524593E-02
(PID.TID 0000.0001) %MON exf_aqh_min                  =   2.7171159548406E-03
(PID.TID 0000.0001) %MON exf_aqh_mean                 =   9.4168909734027E-03
(PID.TID 0000.0001) %MON exf_aqh_sd                   =   2.8751456814907E-03
(PID.TID 0000.0001) %MON exf_aqh_del2                 =   3.7484551964519E-06
(PID.TID 0000.0001) %MON exf_lwflux_max               =   1.5340376600531E+02
(PID.TID 0000.0001) %MON exf_lwflux_min               =  -3.1012593454390E+00
(PID.TID 0000.0001) %MON exf_lwflux_mean              =   6.5383674771342E+01
(PID.TID 0000.0001) %MON exf_lwflux_sd                =   2.6621698448982E+01
(PID.TID 0000.0001) %MON exf_lwflux_del2              =   2.7098386461739E-02
(PID.TID 0000.0001) %MON exf_evap_max                 =   2.8323876483649E-07
(PID.TID 0000.0001) %MON exf_evap_min                 =  -9.7199624284641E-08
(PID.TID 0000.0001) %MON exf_evap_mean                =   5.9256152292948E-08
(PID.TID 0000.0001) %MON exf_evap_sd                  =   4.2048060612215E-08
(PID.TID 0000.0001) %MON exf_evap_del2                =   2.8562914525399E-11
(PID.TID 0000.0001) %MON exf_precip_max               =   1.9335571503569E-06
(PID.TID 0000.0001) %MON exf_precip_min               =   0.0000000000000E+00
(PID.TID 0000.0001) %MON exf_precip_mean              =   4.0843713758428E-08
(PID.TID 0000.0001) %MON exf_precip_sd                =   1.3798293944741E-07
(PID.TID 0000.0001) %MON exf_precip_del2              =   5.7975422738598E-11
(PID.TID 0000.0001) %MON exf_swflux_max               =   0.0000000000000E+00
(PID.TID 0000.0001) %MON exf_swflux_min               =   0.0000000000000E+00
(PID.TID 0000.0001) %MON exf_swflux_mean              =   0.0000000000000E+00
(PID.TID 0000.0001) %MON exf_swflux_sd                =   0.0000000000000E+00
(PID.TID 0000.0001) %MON exf_swflux_del2              =   0.0000000000000E+00
(PID.TID 0000.0001) %MON exf_swdown_max               =   0.0000000000000E+00
(PID.TID 0000.0001) %MON exf_swdown_min               =   0.0000000000000E+00
(PID.TID 0000.0001) %MON exf_swdown_mean              =   0.0000000000000E+00
(PID.TID 0000.0001) %MON exf_swdown_sd                =   0.0000000000000E+00
(PID.TID 0000.0001) %MON exf_swdown_del2              =   0.0000000000000E+00
(PID.TID 0000.0001) %MON exf_lwdown_max               =   4.1831267501885E+02
(PID.TID 0000.0001) %MON exf_lwdown_min               =   2.2402298936111E+02
(PID.TID 0000.0001) %MON exf_lwdown_mean              =   3.4965138826056E+02
(PID.TID 0000.0001) %MON exf_lwdown_sd                =   3.1755013557864E+01
(PID.TID 0000.0001) %MON exf_lwdown_del2              =   1.3542357561132E-01
(PID.TID 0000.0001) %MON exf_apressure_max            =   1.0280576881181E+05
(PID.TID 0000.0001) %MON exf_apressure_min            =   1.0001483343524E+05
(PID.TID 0000.0001) %MON exf_apressure_mean           =   1.0216685184592E+05
(PID.TID 0000.0001) %MON exf_apressure_sd             =   4.9875939305256E+02
(PID.TID 0000.0001) %MON exf_apressure_del2           =   3.9520330557201E+01
(PID.TID 0000.0001) %MON exf_runoff_max               =   4.4374791284855E-08
(PID.TID 0000.0001) %MON exf_runoff_min               =   0.0000000000000E+00
(PID.TID 0000.0001) %MON exf_runoff_mean              =   1.5884794052194E-09
(PID.TID 0000.0001) %MON exf_runoff_sd                =   5.3901957917178E-09
(PID.TID 0000.0001) %MON exf_runoff_del2              =   2.2191214937507E-12
(PID.TID 0000.0001) // =======================================================
(PID.TID 0000.0001) // End MONITOR EXF statistics
(PID.TID 0000.0001) // =======================================================
 cg2d: Sum(rhs),rhsMax =   1.45587279188617E+03  1.20772501544855E-01
(PID.TID 0000.0001)      cg2d_init_res =   1.63643959559739E+00
(PID.TID 0000.0001)      cg2d_iters(min,last) =      -1     313
(PID.TID 0000.0001)      cg2d_last_res =   6.70294745279695E-12
(PID.TID 0000.0001) // =======================================================
(PID.TID 0000.0001) // Begin MONITOR dynamic field statistics
(PID.TID 0000.0001) // =======================================================
(PID.TID 0000.0001) %MON time_tsnumber                =                    11
(PID.TID 0000.0001) %MON time_secondsf                =   2.6400000000000E+03
(PID.TID 0000.0001) %MON dynstat_eta_max              =   1.1289662377389E+00
(PID.TID 0000.0001) %MON dynstat_eta_min              =  -1.4828576307778E+00
(PID.TID 0000.0001) %MON dynstat_eta_mean             =  -4.9510013214798E-02
(PID.TID 0000.0001) %MON dynstat_eta_sd               =   2.5451553019671E-01
(PID.TID 0000.0001) %MON dynstat_eta_del2             =   2.4569334169657E-06
(PID.TID 0000.0001) %MON dynstat_uvel_max             =   1.2857747537605E+00
(PID.TID 0000.0001) %MON dynstat_uvel_min             =  -7.3182416180786E-01
(PID.TID 0000.0001) %MON dynstat_uvel_mean            =   2.0067492993309E-03
(PID.TID 0000.0001) %MON dynstat_uvel_sd              =   5.2289879624979E-02
(PID.TID 0000.0001) %MON dynstat_uvel_del2            =   5.3221304242291E-07
(PID.TID 0000.0001) %MON dynstat_vvel_max             =   1.8435456595842E+00
(PID.TID 0000.0001) %MON dynstat_vvel_min             =  -9.1895977212630E-01
(PID.TID 0000.0001) %MON dynstat_vvel_mean            =  -4.1279105296255E-03
(PID.TID 0000.0001) %MON dynstat_vvel_sd              =   4.9391736442789E-02
(PID.TID 0000.0001) %MON dynstat_vvel_del2            =   4.8026705804509E-07
(PID.TID 0000.0001) %MON dynstat_wvel_max             =   3.4149882500357E-02
(PID.TID 0000.0001) %MON dynstat_wvel_min             =  -3.1210552523083E-02
(PID.TID 0000.0001) %MON dynstat_wvel_mean            =  -1.5752607920097E-05
(PID.TID 0000.0001) %MON dynstat_wvel_sd              =   6.0711886645644E-04
(PID.TID 0000.0001) %MON dynstat_wvel_del2            =   7.4298318115120E-08
(PID.TID 0000.0001) %MON dynstat_theta_max            =   2.6143132420473E+01
(PID.TID 0000.0001) %MON dynstat_theta_min            =   1.4688649830470E+00
(PID.TID 0000.0001) %MON dynstat_theta_mean           =   5.5098778230333E+00
(PID.TID 0000.0001) %MON dynstat_theta_sd             =   4.7733385464890E+00
(PID.TID 0000.0001) %MON dynstat_theta_del2           =   4.0266493301685E-06
(PID.TID 0000.0001) %MON dynstat_salt_max             =   3.9156237681992E+01
(PID.TID 0000.0001) %MON dynstat_salt_min             =   3.3098055441648E+01
(PID.TID 0000.0001) %MON dynstat_salt_mean            =   3.5173366457615E+01
(PID.TID 0000.0001) %MON dynstat_salt_sd              =   3.7891380319211E-01
(PID.TID 0000.0001) %MON dynstat_salt_del2            =   5.2363795225758E-07
(PID.TID 0000.0001) %MON forcing_qnet_max             =   1.1911055593547E+03
(PID.TID 0000.0001) %MON forcing_qnet_min             =  -2.9604275797512E+02
(PID.TID 0000.0001) %MON forcing_qnet_mean            =   2.4162920308909E+02
(PID.TID 0000.0001) %MON forcing_qnet_sd              =   1.4214872990005E+02
(PID.TID 0000.0001) %MON forcing_qnet_del2            =   1.6680056248225E-03
(PID.TID 0000.0001) %MON forcing_qsw_max              =   0.0000000000000E+00
(PID.TID 0000.0001) %MON forcing_qsw_min              =   0.0000000000000E+00
(PID.TID 0000.0001) %MON forcing_qsw_mean             =   0.0000000000000E+00
(PID.TID 0000.0001) %MON forcing_qsw_sd               =   0.0000000000000E+00
(PID.TID 0000.0001) %MON forcing_qsw_del2             =   0.0000000000000E+00
(PID.TID 0000.0001) %MON forcing_empmr_max            =   2.5723307947830E-04
(PID.TID 0000.0001) %MON forcing_empmr_min            =  -1.7560212113219E-03
(PID.TID 0000.0001) %MON forcing_empmr_mean           =   1.6823959129300E-05
(PID.TID 0000.0001) %MON forcing_empmr_sd             =   1.3268289766145E-04
(PID.TID 0000.0001) %MON forcing_empmr_del2           =   2.9973475103896E-09
(PID.TID 0000.0001) %MON forcing_fu_max               =   8.6566035234038E-01
(PID.TID 0000.0001) %MON forcing_fu_min               =  -4.0282321372919E-01
(PID.TID 0000.0001) %MON forcing_fu_mean              =   6.3524622008455E-02
(PID.TID 0000.0001) %MON forcing_fu_sd                =   1.5506864316273E-01
(PID.TID 0000.0001) %MON forcing_fu_del2              =   3.5276771063263E-07
(PID.TID 0000.0001) %MON forcing_fv_max               =   3.9447991965211E-01
(PID.TID 0000.0001) %MON forcing_fv_min               =  -5.6879356309317E-01
(PID.TID 0000.0001) %MON forcing_fv_mean              =   1.0859630525364E-02
(PID.TID 0000.0001) %MON forcing_fv_sd                =   1.0171019223981E-01
(PID.TID 0000.0001) %MON forcing_fv_del2              =   2.6270683390630E-07
(PID.TID 0000.0001) %MON trAdv_CFL_u_max              =   7.8008935218756E-02
(PID.TID 0000.0001) %MON trAdv_CFL_v_max              =   1.1697103815538E-01
(PID.TID 0000.0001) %MON trAdv_CFL_w_max              =   5.1062486853723E-01
(PID.TID 0000.0001) %MON advcfl_uvel_max              =   7.8008934156594E-02
(PID.TID 0000.0001) %MON advcfl_vvel_max              =   1.1700543217514E-01
(PID.TID 0000.0001) %MON advcfl_wvel_max              =   5.0211445406161E-01
(PID.TID 0000.0001) %MON advcfl_W_hf_max              =   5.1062486853723E-01
(PID.TID 0000.0001) %MON pe_b_mean                    =  -1.1211662191776E-03
(PID.TID 0000.0001) %MON ke_max                       =   1.7036308546768E+00
(PID.TID 0000.0001) %MON ke_mean                      =   2.5782656003530E-03
(PID.TID 0000.0001) %MON ke_vol                       =   4.5818637279721E+16
(PID.TID 0000.0001) %MON vort_r_min                   =  -5.3466197543614E-04
(PID.TID 0000.0001) %MON vort_r_max                   =   5.3063787278754E-04
(PID.TID 0000.0001) %MON vort_a_mean                  =   8.2147631608100E-05
(PID.TID 0000.0001) %MON vort_a_sd                    =   1.0147666760700E-05
(PID.TID 0000.0001) %MON vort_p_mean                  =   8.4848853197377E-05
(PID.TID 0000.0001) %MON vort_p_sd                    =   3.4976253702828E-05
(PID.TID 0000.0001) %MON surfExpan_theta_mean         =  -3.8144685016932E-04
(PID.TID 0000.0001) %MON surfExpan_salt_mean          =  -9.9171569555372E-04
(PID.TID 0000.0001) // =======================================================
(PID.TID 0000.0001) // End MONITOR dynamic field statistics
(PID.TID 0000.0001) // =======================================================
(PID.TID 0000.0001) // =======================================================
(PID.TID 0000.0001) // Begin OBCS MONITOR field statistics
(PID.TID 0000.0001) // =======================================================
(PID.TID 0000.0001) %MON obc_N_vVel_max               =   6.9637688254728E-01
(PID.TID 0000.0001) %MON obc_N_vVel_min               =  -4.5212790745131E-01
(PID.TID 0000.0001) %MON obc_N_vVel_mean              =   1.4218829407142E-02
(PID.TID 0000.0001) %MON obc_N_vVel_sd                =   6.5187373824007E-02
(PID.TID 0000.0001) %MON obc_N_vVel_Int               =   2.0354374392356E+08
(PID.TID 0000.0001) %MON obc_S_vVel_max               =   1.5707096907491E+00
(PID.TID 0000.0001) %MON obc_S_vVel_min               =  -2.6136437896750E-01
(PID.TID 0000.0001) %MON obc_S_vVel_mean              =  -3.7201550832099E-03
(PID.TID 0000.0001) %MON obc_S_vVel_sd                =   3.6185756391628E-02
(PID.TID 0000.0001) %MON obc_S_vVel_Int               =  -1.1325230796587E+08
(PID.TID 0000.0001) %MON obc_N_theta_max              =   1.6389891921106E+01
(PID.TID 0000.0001) %MON obc_N_theta_min              =   1.8895912667048E+00
(PID.TID 0000.0001) %MON obc_N_theta_mean             =   5.1588992762384E+00
(PID.TID 0000.0001) %MON obc_N_theta_sd               =   3.4826317304761E+00
(PID.TID 0000.0001) %MON obc_S_theta_max              =   2.5543811072233E+01
(PID.TID 0000.0001) %MON obc_S_theta_min              =   1.4633000000465E+00
(PID.TID 0000.0001) %MON obc_S_theta_mean             =   5.4595489249411E+00
(PID.TID 0000.0001) %MON obc_S_theta_sd               =   5.3558944527081E+00
(PID.TID 0000.0001) %MON obc_N_salt_max               =   3.5910863155963E+01
(PID.TID 0000.0001) %MON obc_N_salt_min               =   3.3295074599012E+01
(PID.TID 0000.0001) %MON obc_N_salt_mean              =   3.5114561060497E+01
(PID.TID 0000.0001) %MON obc_N_salt_sd                =   3.0984801720924E-01
(PID.TID 0000.0001) %MON obc_S_salt_max               =   3.7318270902396E+01
(PID.TID 0000.0001) %MON obc_S_salt_min               =   3.4844694888241E+01
(PID.TID 0000.0001) %MON obc_S_salt_mean              =   3.5168372147752E+01
(PID.TID 0000.0001) %MON obc_S_salt_sd                =   4.5716724609566E-01
(PID.TID 0000.0001) // =======================================================
(PID.TID 0000.0001) // End OBCS MONITOR field statistics
(PID.TID 0000.0001) // =======================================================
(PID.TID 0000.0001) // =======================================================
(PID.TID 0000.0001) // Begin MONITOR EXF statistics
(PID.TID 0000.0001) // =======================================================
(PID.TID 0000.0001) %MON exf_tsnumber                 =                    11
(PID.TID 0000.0001) %MON exf_time_sec                 =   2.6400000000000E+03
(PID.TID 0000.0001) %MON exf_ustress_max              =   8.7811467005353E-01
(PID.TID 0000.0001) %MON exf_ustress_min              =  -4.0042211449733E-01
(PID.TID 0000.0001) %MON exf_ustress_mean             =   6.3634976123257E-02
(PID.TID 0000.0001) %MON exf_ustress_sd               =   1.5519172649735E-01
(PID.TID 0000.0001) %MON exf_ustress_del2             =   4.0216082341726E-07
(PID.TID 0000.0001) %MON exf_vstress_max              =   3.9765075630235E-01
(PID.TID 0000.0001) %MON exf_vstress_min              =  -5.6588039589642E-01
(PID.TID 0000.0001) %MON exf_vstress_mean             =   1.0940160740379E-02
(PID.TID 0000.0001) %MON exf_vstress_sd               =   1.0176312775029E-01
(PID.TID 0000.0001) %MON exf_vstress_del2             =   2.9529331126537E-07
(PID.TID 0000.0001) %MON exf_hflux_max                =   1.1798352490907E+03
(PID.TID 0000.0001) %MON exf_hflux_min                =  -2.9385571665647E+02
(PID.TID 0000.0001) %MON exf_hflux_mean               =   2.3956402455539E+02
(PID.TID 0000.0001) %MON exf_hflux_sd                 =   1.4060856894146E+02
(PID.TID 0000.0001) %MON exf_hflux_del2               =   1.0908439788255E-01
(PID.TID 0000.0001) %MON exf_sflux_max                =   2.5796162775229E-07
(PID.TID 0000.0001) %MON exf_sflux_min                =  -1.7748312549708E-06
(PID.TID 0000.0001) %MON exf_sflux_mean               =   1.6589785408093E-08
(PID.TID 0000.0001) %MON exf_sflux_sd                 =   1.3237912141049E-07
(PID.TID 0000.0001) %MON exf_sflux_del2               =   5.2931059598179E-11
(PID.TID 0000.0001) %MON exf_uwind_max                =   1.9945079604688E+01
(PID.TID 0000.0001) %MON exf_uwind_min                =  -1.4818555349814E+01
(PID.TID 0000.0001) %MON exf_uwind_mean               =   2.4828907705118E+00
(PID.TID 0000.0001) %MON exf_uwind_sd                 =   6.6672613492243E+00
(PID.TID 0000.0001) %MON exf_uwind_del2               =   2.8393548930900E-03
(PID.TID 0000.0001) %MON exf_vwind_max                =   1.4527596010582E+01
(PID.TID 0000.0001) %MON exf_vwind_min                =  -1.2805333940929E+01
(PID.TID 0000.0001) %MON exf_vwind_mean               =   8.6377057106716E-01
(PID.TID 0000.0001) %MON exf_vwind_sd                 =   5.1783488833568E+00
(PID.TID 0000.0001) %MON exf_vwind_del2               =   2.0883025264456E-03
(PID.TID 0000.0001) %MON exf_wspeed_max               =   2.0257866570060E+01
(PID.TID 0000.0001) %MON exf_wspeed_min               =   4.6108811643611E-03
(PID.TID 0000.0001) %MON exf_wspeed_mean              =   7.7109214896308E+00
(PID.TID 0000.0001) %MON exf_wspeed_sd                =   4.3266854536824E+00
(PID.TID 0000.0001) %MON exf_wspeed_del2              =   3.5243177589725E-03
(PID.TID 0000.0001) %MON exf_atemp_max                =   2.9815365399267E+02
(PID.TID 0000.0001) %MON exf_atemp_min                =   2.7427014538059E+02
(PID.TID 0000.0001) %MON exf_atemp_mean               =   2.9066781352534E+02
(PID.TID 0000.0001) %MON exf_atemp_sd                 =   3.9458015647656E+00
(PID.TID 0000.0001) %MON exf_atemp_del2               =   6.8363292356366E-03
(PID.TID 0000.0001) %MON exf_aqh_max                  =   1.6745626223720E-02
(PID.TID 0000.0001) %MON exf_aqh_min                  =   2.7148212570767E-03
(PID.TID 0000.0001) %MON exf_aqh_mean                 =   9.4157028205886E-03
(PID.TID 0000.0001) %MON exf_aqh_sd                   =   2.8761932334855E-03
(PID.TID 0000.0001) %MON exf_aqh_del2                 =   3.7480524478943E-06
(PID.TID 0000.0001) %MON exf_lwflux_max               =   1.5367535056672E+02
(PID.TID 0000.0001) %MON exf_lwflux_min               =  -1.6583457590012E+00
(PID.TID 0000.0001) %MON exf_lwflux_mean              =   6.5365642217768E+01
(PID.TID 0000.0001) %MON exf_lwflux_sd                =   2.6559222415945E+01
(PID.TID 0000.0001) %MON exf_lwflux_del2              =   2.7080198822030E-02
(PID.TID 0000.0001) %MON exf_evap_max                 =   2.8511238564393E-07
(PID.TID 0000.0001) %MON exf_evap_min                 =  -9.8057102298566E-08
(PID.TID 0000.0001) %MON exf_evap_mean                =   5.9265113843968E-08
(PID.TID 0000.0001) %MON exf_evap_sd                  =   4.2073225336151E-08
(PID.TID 0000.0001) %MON exf_evap_del2                =   2.8577125702797E-11
(PID.TID 0000.0001) %MON exf_precip_max               =   1.9530076773174E-06
(PID.TID 0000.0001) %MON exf_precip_min               =   0.0000000000000E+00
(PID.TID 0000.0001) %MON exf_precip_mean              =   4.1086849030656E-08
(PID.TID 0000.0001) %MON exf_precip_sd                =   1.3784055398265E-07
(PID.TID 0000.0001) %MON exf_precip_del2              =   5.7829315018580E-11
(PID.TID 0000.0001) %MON exf_swflux_max               =   0.0000000000000E+00
(PID.TID 0000.0001) %MON exf_swflux_min               =   0.0000000000000E+00
(PID.TID 0000.0001) %MON exf_swflux_mean              =   0.0000000000000E+00
(PID.TID 0000.0001) %MON exf_swflux_sd                =   0.0000000000000E+00
(PID.TID 0000.0001) %MON exf_swflux_del2              =   0.0000000000000E+00
(PID.TID 0000.0001) %MON exf_swdown_max               =   0.0000000000000E+00
(PID.TID 0000.0001) %MON exf_swdown_min               =   0.0000000000000E+00
(PID.TID 0000.0001) %MON exf_swdown_mean              =   0.0000000000000E+00
(PID.TID 0000.0001) %MON exf_swdown_sd                =   0.0000000000000E+00
(PID.TID 0000.0001) %MON exf_swdown_del2              =   0.0000000000000E+00
(PID.TID 0000.0001) %MON exf_lwdown_max               =   4.1834379762812E+02
(PID.TID 0000.0001) %MON exf_lwdown_min               =   2.2446257076056E+02
(PID.TID 0000.0001) %MON exf_lwdown_mean              =   3.4966587941356E+02
(PID.TID 0000.0001) %MON exf_lwdown_sd                =   3.1662579062329E+01
(PID.TID 0000.0001) %MON exf_lwdown_del2              =   1.3542704062714E-01
(PID.TID 0000.0001) %MON exf_apressure_max            =   1.0280887953443E+05
(PID.TID 0000.0001) %MON exf_apressure_min            =   1.0001557376642E+05
(PID.TID 0000.0001) %MON exf_apressure_mean           =   1.0216762915247E+05
(PID.TID 0000.0001) %MON exf_apressure_sd             =   4.9875562730687E+02
(PID.TID 0000.0001) %MON exf_apressure_del2           =   3.9520638211190E+01
(PID.TID 0000.0001) %MON exf_runoff_max               =   4.4374791284855E-08
(PID.TID 0000.0001) %MON exf_runoff_min               =   0.0000000000000E+00
(PID.TID 0000.0001) %MON exf_runoff_mean              =   1.5884794052194E-09
(PID.TID 0000.0001) %MON exf_runoff_sd                =   5.3901957917178E-09
(PID.TID 0000.0001) %MON exf_runoff_del2              =   2.2191214937507E-12
(PID.TID 0000.0001) // =======================================================
(PID.TID 0000.0001) // End MONITOR EXF statistics
(PID.TID 0000.0001) // =======================================================
 cg2d: Sum(rhs),rhsMax =   1.66599713917071E+03  1.12633739643748E-01
(PID.TID 0000.0001)      cg2d_init_res =   1.54208869621595E+00
(PID.TID 0000.0001)      cg2d_iters(min,last) =      -1     312
(PID.TID 0000.0001)      cg2d_last_res =   6.85524852836921E-12
(PID.TID 0000.0001) // =======================================================
(PID.TID 0000.0001) // Begin MONITOR dynamic field statistics
(PID.TID 0000.0001) // =======================================================
(PID.TID 0000.0001) %MON time_tsnumber                =                    12
(PID.TID 0000.0001) %MON time_secondsf                =   2.8800000000000E+03
(PID.TID 0000.0001) %MON dynstat_eta_max              =   1.0131520212978E+00
(PID.TID 0000.0001) %MON dynstat_eta_min              =  -1.3389219962965E+00
(PID.TID 0000.0001) %MON dynstat_eta_mean             =  -5.6655733135376E-02
(PID.TID 0000.0001) %MON dynstat_eta_sd               =   2.6429637553310E-01
(PID.TID 0000.0001) %MON dynstat_eta_del2             =   2.4249083936449E-06
(PID.TID 0000.0001) %MON dynstat_uvel_max             =   1.2794982237154E+00
(PID.TID 0000.0001) %MON dynstat_uvel_min             =  -7.9771844751011E-01
(PID.TID 0000.0001) %MON dynstat_uvel_mean            =   1.7828031705919E-03
(PID.TID 0000.0001) %MON dynstat_uvel_sd              =   5.2294616005536E-02
(PID.TID 0000.0001) %MON dynstat_uvel_del2            =   5.4069397186270E-07
(PID.TID 0000.0001) %MON dynstat_vvel_max             =   1.8427506230712E+00
(PID.TID 0000.0001) %MON dynstat_vvel_min             =  -9.1873655681399E-01
(PID.TID 0000.0001) %MON dynstat_vvel_mean            =  -4.3544364200423E-03
(PID.TID 0000.0001) %MON dynstat_vvel_sd              =   4.9485787092352E-02
(PID.TID 0000.0001) %MON dynstat_vvel_del2            =   4.8781499955028E-07
(PID.TID 0000.0001) %MON dynstat_wvel_max             =   3.5474686250546E-02
(PID.TID 0000.0001) %MON dynstat_wvel_min             =  -3.1933652702894E-02
(PID.TID 0000.0001) %MON dynstat_wvel_mean            =  -1.6839526335023E-05
(PID.TID 0000.0001) %MON dynstat_wvel_sd              =   6.0929578359110E-04
(PID.TID 0000.0001) %MON dynstat_wvel_del2            =   7.2659928725218E-08
(PID.TID 0000.0001) %MON dynstat_theta_max            =   2.6144881578250E+01
(PID.TID 0000.0001) %MON dynstat_theta_min            =   1.4688651627908E+00
(PID.TID 0000.0001) %MON dynstat_theta_mean           =   5.5098887472139E+00
(PID.TID 0000.0001) %MON dynstat_theta_sd             =   4.7733369438439E+00
(PID.TID 0000.0001) %MON dynstat_theta_del2           =   4.0291184378852E-06
(PID.TID 0000.0001) %MON dynstat_salt_max             =   3.9152189442653E+01
(PID.TID 0000.0001) %MON dynstat_salt_min             =   3.3099102983995E+01
(PID.TID 0000.0001) %MON dynstat_salt_mean            =   3.5173366679327E+01
(PID.TID 0000.0001) %MON dynstat_salt_sd              =   3.7891475247372E-01
(PID.TID 0000.0001) %MON dynstat_salt_del2            =   5.2633530699709E-07
(PID.TID 0000.0001) %MON forcing_qnet_max             =   1.1979931893560E+03
(PID.TID 0000.0001) %MON forcing_qnet_min             =  -2.9873675300260E+02
(PID.TID 0000.0001) %MON forcing_qnet_mean            =   2.4164695848373E+02
(PID.TID 0000.0001) %MON forcing_qnet_sd              =   1.4229237211501E+02
(PID.TID 0000.0001) %MON forcing_qnet_del2            =   1.6689140679730E-03
(PID.TID 0000.0001) %MON forcing_qsw_max              =   0.0000000000000E+00
(PID.TID 0000.0001) %MON forcing_qsw_min              =   0.0000000000000E+00
(PID.TID 0000.0001) %MON forcing_qsw_mean             =   0.0000000000000E+00
(PID.TID 0000.0001) %MON forcing_qsw_sd               =   0.0000000000000E+00
(PID.TID 0000.0001) %MON forcing_qsw_del2             =   0.0000000000000E+00
(PID.TID 0000.0001) %MON forcing_empmr_max            =   2.5796162775229E-04
(PID.TID 0000.0001) %MON forcing_empmr_min            =  -1.7748312549708E-03
(PID.TID 0000.0001) %MON forcing_empmr_mean           =   1.6589785408093E-05
(PID.TID 0000.0001) %MON forcing_empmr_sd             =   1.3237912141049E-04
(PID.TID 0000.0001) %MON forcing_empmr_del2           =   2.8534689673876E-09
(PID.TID 0000.0001) %MON forcing_fu_max               =   8.7779650679089E-01
(PID.TID 0000.0001) %MON forcing_fu_min               =  -4.0041789662718E-01
(PID.TID 0000.0001) %MON forcing_fu_mean              =   6.3695748262733E-02
(PID.TID 0000.0001) %MON forcing_fu_sd                =   1.5525214389006E-01
(PID.TID 0000.0001) %MON forcing_fu_del2              =   3.6320790466916E-07
(PID.TID 0000.0001) %MON forcing_fv_max               =   3.9763484474977E-01
(PID.TID 0000.0001) %MON forcing_fv_min               =  -5.7024624759355E-01
(PID.TID 0000.0001) %MON forcing_fv_mean              =   1.0922722089050E-02
(PID.TID 0000.0001) %MON forcing_fv_sd                =   1.0189539998107E-01
(PID.TID 0000.0001) %MON forcing_fv_del2              =   2.7448976842804E-07
(PID.TID 0000.0001) %MON trAdv_CFL_u_max              =   7.7628133352603E-02
(PID.TID 0000.0001) %MON trAdv_CFL_v_max              =   1.1691899461386E-01
(PID.TID 0000.0001) %MON trAdv_CFL_w_max              =   5.2036705803964E-01
(PID.TID 0000.0001) %MON advcfl_uvel_max              =   7.7628132295626E-02
(PID.TID 0000.0001) %MON advcfl_vvel_max              =   1.1695337333079E-01
(PID.TID 0000.0001) %MON advcfl_wvel_max              =   5.1169427373898E-01
(PID.TID 0000.0001) %MON advcfl_W_hf_max              =   5.2036705803964E-01
(PID.TID 0000.0001) %MON pe_b_mean                    =  -1.2881840951246E-03
(PID.TID 0000.0001) %MON ke_max                       =   1.7015474108782E+00
(PID.TID 0000.0001) %MON ke_mean                      =   2.5836660836320E-03
(PID.TID 0000.0001) %MON ke_vol                       =   4.5818637279721E+16
(PID.TID 0000.0001) %MON vort_r_min                   =  -5.3537345995874E-04
(PID.TID 0000.0001) %MON vort_r_max                   =   5.3797839141967E-04
(PID.TID 0000.0001) %MON vort_a_mean                  =   8.2147630883737E-05
(PID.TID 0000.0001) %MON vort_a_sd                    =   1.0151222639985E-05
(PID.TID 0000.0001) %MON vort_p_mean                  =   8.4848852449195E-05
(PID.TID 0000.0001) %MON vort_p_sd                    =   3.4979066319737E-05
(PID.TID 0000.0001) %MON surfExpan_theta_mean         =  -4.2191563775408E-04
(PID.TID 0000.0001) %MON surfExpan_salt_mean          =  -1.0550869488397E-03
(PID.TID 0000.0001) // =======================================================
(PID.TID 0000.0001) // End MONITOR dynamic field statistics
(PID.TID 0000.0001) // =======================================================
(PID.TID 0000.0001) // =======================================================
(PID.TID 0000.0001) // Begin OBCS MONITOR field statistics
(PID.TID 0000.0001) // =======================================================
(PID.TID 0000.0001) %MON obc_N_vVel_max               =   6.9616239172488E-01
(PID.TID 0000.0001) %MON obc_N_vVel_min               =  -4.5134219090155E-01
(PID.TID 0000.0001) %MON obc_N_vVel_mean              =   1.4149296418406E-02
(PID.TID 0000.0001) %MON obc_N_vVel_sd                =   6.5149127384136E-02
(PID.TID 0000.0001) %MON obc_N_vVel_Int               =   2.0254837331685E+08
(PID.TID 0000.0001) %MON obc_S_vVel_max               =   1.5720076864288E+00
(PID.TID 0000.0001) %MON obc_S_vVel_min               =  -2.6141180001893E-01
(PID.TID 0000.0001) %MON obc_S_vVel_mean              =  -4.3996971105184E-03
(PID.TID 0000.0001) %MON obc_S_vVel_sd                =   3.6230330663446E-02
(PID.TID 0000.0001) %MON obc_S_vVel_Int               =  -1.3393953772676E+08
(PID.TID 0000.0001) %MON obc_N_theta_max              =   1.6389803818919E+01
(PID.TID 0000.0001) %MON obc_N_theta_min              =   1.8895913157701E+00
(PID.TID 0000.0001) %MON obc_N_theta_mean             =   5.1588918920883E+00
(PID.TID 0000.0001) %MON obc_N_theta_sd               =   3.4826224400857E+00
(PID.TID 0000.0001) %MON obc_S_theta_max              =   2.5543708323453E+01
(PID.TID 0000.0001) %MON obc_S_theta_min              =   1.4633003963337E+00
(PID.TID 0000.0001) %MON obc_S_theta_mean             =   5.4595481199165E+00
(PID.TID 0000.0001) %MON obc_S_theta_sd               =   5.3558905817403E+00
(PID.TID 0000.0001) %MON obc_N_salt_max               =   3.5910862747600E+01
(PID.TID 0000.0001) %MON obc_N_salt_min               =   3.3295080101645E+01
(PID.TID 0000.0001) %MON obc_N_salt_mean              =   3.5114560764510E+01
(PID.TID 0000.0001) %MON obc_N_salt_sd                =   3.0984789812991E-01
(PID.TID 0000.0001) %MON obc_S_salt_max               =   3.7318264018012E+01
(PID.TID 0000.0001) %MON obc_S_salt_min               =   3.4844694940461E+01
(PID.TID 0000.0001) %MON obc_S_salt_mean              =   3.5168372075835E+01
(PID.TID 0000.0001) %MON obc_S_salt_sd                =   4.5716689507451E-01
(PID.TID 0000.0001) // =======================================================
(PID.TID 0000.0001) // End OBCS MONITOR field statistics
(PID.TID 0000.0001) // =======================================================
(PID.TID 0000.0001) // =======================================================
(PID.TID 0000.0001) // Begin MONITOR EXF statistics
(PID.TID 0000.0001) // =======================================================
(PID.TID 0000.0001) %MON exf_tsnumber                 =                    12
(PID.TID 0000.0001) %MON exf_time_sec                 =   2.8800000000000E+03
(PID.TID 0000.0001) %MON exf_ustress_max              =   8.9089051442017E-01
(PID.TID 0000.0001) %MON exf_ustress_min              =  -3.9812770054976E-01
(PID.TID 0000.0001) %MON exf_ustress_mean             =   6.3829487702075E-02
(PID.TID 0000.0001) %MON exf_ustress_sd               =   1.5544675457727E-01
(PID.TID 0000.0001) %MON exf_ustress_del2             =   4.1567977711328E-07
(PID.TID 0000.0001) %MON exf_vstress_max              =   4.0159201154620E-01
(PID.TID 0000.0001) %MON exf_vstress_min              =  -5.6735230755010E-01
(PID.TID 0000.0001) %MON exf_vstress_mean             =   1.1005643524176E-02
(PID.TID 0000.0001) %MON exf_vstress_sd               =   1.0201129801277E-01
(PID.TID 0000.0001) %MON exf_vstress_del2             =   3.1033852345623E-07
(PID.TID 0000.0001) %MON exf_hflux_max                =   1.1867181612258E+03
(PID.TID 0000.0001) %MON exf_hflux_min                =  -2.9657094624695E+02
(PID.TID 0000.0001) %MON exf_hflux_mean               =   2.3961968844850E+02
(PID.TID 0000.0001) %MON exf_hflux_sd                 =   1.4081310295767E+02
(PID.TID 0000.0001) %MON exf_hflux_del2               =   1.0916291883414E-01
(PID.TID 0000.0001) %MON exf_sflux_max                =   2.5871695762379E-07
(PID.TID 0000.0001) %MON exf_sflux_min                =  -1.7936409736781E-06
(PID.TID 0000.0001) %MON exf_sflux_mean               =   1.6362941976866E-08
(PID.TID 0000.0001) %MON exf_sflux_sd                 =   1.3238385870664E-07
(PID.TID 0000.0001) %MON exf_sflux_del2               =   5.2806769413838E-11
(PID.TID 0000.0001) %MON exf_uwind_max                =   2.0060322112239E+01
(PID.TID 0000.0001) %MON exf_uwind_min                =  -1.4794109857884E+01
(PID.TID 0000.0001) %MON exf_uwind_mean               =   2.4848164756238E+00
(PID.TID 0000.0001) %MON exf_uwind_sd                 =   6.6688949033138E+00
(PID.TID 0000.0001) %MON exf_uwind_del2               =   2.8402158680606E-03
(PID.TID 0000.0001) %MON exf_vwind_max                =   1.4594881245539E+01
(PID.TID 0000.0001) %MON exf_vwind_min                =  -1.2823369104330E+01
(PID.TID 0000.0001) %MON exf_vwind_mean               =   8.6544010911173E-01
(PID.TID 0000.0001) %MON exf_vwind_sd                 =   5.1817980381146E+00
(PID.TID 0000.0001) %MON exf_vwind_del2               =   2.0901286132201E-03
(PID.TID 0000.0001) %MON exf_wspeed_max               =   2.0249368152401E+01
(PID.TID 0000.0001) %MON exf_wspeed_min               =   1.1962348839171E-02
(PID.TID 0000.0001) %MON exf_wspeed_mean              =   7.7129611716990E+00
(PID.TID 0000.0001) %MON exf_wspeed_sd                =   4.3311337549317E+00
(PID.TID 0000.0001) %MON exf_wspeed_del2              =   3.5260804527813E-03
(PID.TID 0000.0001) %MON exf_atemp_max                =   2.9815145670426E+02
(PID.TID 0000.0001) %MON exf_atemp_min                =   2.7424454417195E+02
(PID.TID 0000.0001) %MON exf_atemp_mean               =   2.9066469231915E+02
(PID.TID 0000.0001) %MON exf_atemp_sd                 =   3.9466897201915E+00
(PID.TID 0000.0001) %MON exf_atemp_del2               =   6.8351870032580E-03
(PID.TID 0000.0001) %MON exf_aqh_max                  =   1.6738639922846E-02
(PID.TID 0000.0001) %MON exf_aqh_min                  =   2.7125265593127E-03
(PID.TID 0000.0001) %MON exf_aqh_mean                 =   9.4145146677745E-03
(PID.TID 0000.0001) %MON exf_aqh_sd                   =   2.8774129248554E-03
(PID.TID 0000.0001) %MON exf_aqh_del2                 =   3.7476715225364E-06
(PID.TID 0000.0001) %MON exf_lwflux_max               =   1.5394666487628E+02
(PID.TID 0000.0001) %MON exf_lwflux_min               =  -2.5803179176954E-01
(PID.TID 0000.0001) %MON exf_lwflux_mean              =   6.5347788421923E+01
(PID.TID 0000.0001) %MON exf_lwflux_sd                =   2.6515887041573E+01
(PID.TID 0000.0001) %MON exf_lwflux_del2              =   2.7065131657119E-02
(PID.TID 0000.0001) %MON exf_evap_max                 =   2.8717803465219E-07
(PID.TID 0000.0001) %MON exf_evap_min                 =  -9.8930757148401E-08
(PID.TID 0000.0001) %MON exf_evap_mean                =   5.9281405684969E-08
(PID.TID 0000.0001) %MON exf_evap_sd                  =   4.2109970997580E-08
(PID.TID 0000.0001) %MON exf_evap_del2                =   2.8596401897021E-11
(PID.TID 0000.0001) %MON exf_precip_max               =   1.9724582042779E-06
(PID.TID 0000.0001) %MON exf_precip_min               =   0.0000000000000E+00
(PID.TID 0000.0001) %MON exf_precip_mean              =   4.1329984302883E-08
(PID.TID 0000.0001) %MON exf_precip_sd                =   1.3800384791430E-07
(PID.TID 0000.0001) %MON exf_precip_del2              =   5.7808090136640E-11
(PID.TID 0000.0001) %MON exf_swflux_max               =   0.0000000000000E+00
(PID.TID 0000.0001) %MON exf_swflux_min               =   0.0000000000000E+00
(PID.TID 0000.0001) %MON exf_swflux_mean              =   0.0000000000000E+00
(PID.TID 0000.0001) %MON exf_swflux_sd                =   0.0000000000000E+00
(PID.TID 0000.0001) %MON exf_swflux_del2              =   0.0000000000000E+00
(PID.TID 0000.0001) %MON exf_swdown_max               =   0.0000000000000E+00
(PID.TID 0000.0001) %MON exf_swdown_min               =   0.0000000000000E+00
(PID.TID 0000.0001) %MON exf_swdown_mean              =   0.0000000000000E+00
(PID.TID 0000.0001) %MON exf_swdown_sd                =   0.0000000000000E+00
(PID.TID 0000.0001) %MON exf_swdown_del2              =   0.0000000000000E+00
(PID.TID 0000.0001) %MON exf_lwdown_max               =   4.1837492023739E+02
(PID.TID 0000.0001) %MON exf_lwdown_min               =   2.2467589834697E+02
(PID.TID 0000.0001) %MON exf_lwdown_mean              =   3.4968037056656E+02
(PID.TID 0000.0001) %MON exf_lwdown_sd                =   3.1587078891321E+01
(PID.TID 0000.0001) %MON exf_lwdown_del2              =   1.3543115719897E-01
(PID.TID 0000.0001) %MON exf_apressure_max            =   1.0281199025705E+05
(PID.TID 0000.0001) %MON exf_apressure_min            =   1.0001627344352E+05
(PID.TID 0000.0001) %MON exf_apressure_mean           =   1.0216840645902E+05
(PID.TID 0000.0001) %MON exf_apressure_sd             =   4.9879168551480E+02
(PID.TID 0000.0001) %MON exf_apressure_del2           =   3.9520945946583E+01
(PID.TID 0000.0001) %MON exf_runoff_max               =   4.4374791284855E-08
(PID.TID 0000.0001) %MON exf_runoff_min               =   0.0000000000000E+00
(PID.TID 0000.0001) %MON exf_runoff_mean              =   1.5884794052194E-09
(PID.TID 0000.0001) %MON exf_runoff_sd                =   5.3901957917178E-09
(PID.TID 0000.0001) %MON exf_runoff_del2              =   2.2191214937507E-12
(PID.TID 0000.0001) // =======================================================
(PID.TID 0000.0001) // End MONITOR EXF statistics
(PID.TID 0000.0001) // =======================================================
 cg2d: Sum(rhs),rhsMax =   1.88816941365561E+03  1.28828116976479E-01
(PID.TID 0000.0001)      cg2d_init_res =   1.46069274718736E+00
(PID.TID 0000.0001)      cg2d_iters(min,last) =      -1     312
(PID.TID 0000.0001)      cg2d_last_res =   6.59117722135166E-12
(PID.TID 0000.0001) // =======================================================
(PID.TID 0000.0001) // Begin MONITOR dynamic field statistics
(PID.TID 0000.0001) // =======================================================
(PID.TID 0000.0001) %MON time_tsnumber                =                    13
(PID.TID 0000.0001) %MON time_secondsf                =   3.1200000000000E+03
(PID.TID 0000.0001) %MON dynstat_eta_max              =   9.5606438627289E-01
(PID.TID 0000.0001) %MON dynstat_eta_min              =  -1.4756448534970E+00
(PID.TID 0000.0001) %MON dynstat_eta_mean             =  -6.4211168134239E-02
(PID.TID 0000.0001) %MON dynstat_eta_sd               =   2.7337773097520E-01
(PID.TID 0000.0001) %MON dynstat_eta_del2             =   2.4457253164078E-06
(PID.TID 0000.0001) %MON dynstat_uvel_max             =   1.2734490177727E+00
(PID.TID 0000.0001) %MON dynstat_uvel_min             =  -9.5359834941885E-01
(PID.TID 0000.0001) %MON dynstat_uvel_mean            =   1.5637046487278E-03
(PID.TID 0000.0001) %MON dynstat_uvel_sd              =   5.2308444456347E-02
(PID.TID 0000.0001) %MON dynstat_uvel_del2            =   5.4836638237147E-07
(PID.TID 0000.0001) %MON dynstat_vvel_max             =   1.8420221689616E+00
(PID.TID 0000.0001) %MON dynstat_vvel_min             =  -9.1803941799083E-01
(PID.TID 0000.0001) %MON dynstat_vvel_mean            =  -4.5566738936793E-03
(PID.TID 0000.0001) %MON dynstat_vvel_sd              =   4.9561779953514E-02
(PID.TID 0000.0001) %MON dynstat_vvel_del2            =   4.9538372441092E-07
(PID.TID 0000.0001) %MON dynstat_wvel_max             =   3.6821467152429E-02
(PID.TID 0000.0001) %MON dynstat_wvel_min             =  -3.2455554966135E-02
(PID.TID 0000.0001) %MON dynstat_wvel_mean            =  -1.7906323005954E-05
(PID.TID 0000.0001) %MON dynstat_wvel_sd              =   6.1103196507706E-04
(PID.TID 0000.0001) %MON dynstat_wvel_del2            =   7.1360417108413E-08
(PID.TID 0000.0001) %MON dynstat_theta_max            =   2.6146548115818E+01
(PID.TID 0000.0001) %MON dynstat_theta_min            =   1.4688653538094E+00
(PID.TID 0000.0001) %MON dynstat_theta_mean           =   5.5099014093943E+00
(PID.TID 0000.0001) %MON dynstat_theta_sd             =   4.7733378763050E+00
(PID.TID 0000.0001) %MON dynstat_theta_del2           =   4.0308009202113E-06
(PID.TID 0000.0001) %MON dynstat_salt_max             =   3.9147967236384E+01
(PID.TID 0000.0001) %MON dynstat_salt_min             =   3.3100187935892E+01
(PID.TID 0000.0001) %MON dynstat_salt_mean            =   3.5173367002069E+01
(PID.TID 0000.0001) %MON dynstat_salt_sd              =   3.7891576413649E-01
(PID.TID 0000.0001) %MON dynstat_salt_del2            =   5.2867167065822E-07
(PID.TID 0000.0001) %MON forcing_qnet_max             =   1.2050106978871E+03
(PID.TID 0000.0001) %MON forcing_qnet_min             =  -3.0148911327762E+02
(PID.TID 0000.0001) %MON forcing_qnet_mean            =   2.4168785335254E+02
(PID.TID 0000.0001) %MON forcing_qnet_sd              =   1.4247474614469E+02
(PID.TID 0000.0001) %MON forcing_qnet_del2            =   1.6720301705519E-03
(PID.TID 0000.0001) %MON forcing_qsw_max              =   0.0000000000000E+00
(PID.TID 0000.0001) %MON forcing_qsw_min              =   0.0000000000000E+00
(PID.TID 0000.0001) %MON forcing_qsw_mean             =   0.0000000000000E+00
(PID.TID 0000.0001) %MON forcing_qsw_sd               =   0.0000000000000E+00
(PID.TID 0000.0001) %MON forcing_qsw_del2             =   0.0000000000000E+00
(PID.TID 0000.0001) %MON forcing_empmr_max            =   2.5871695762379E-04
(PID.TID 0000.0001) %MON forcing_empmr_min            =  -1.7936409736781E-03
(PID.TID 0000.0001) %MON forcing_empmr_mean           =   1.6362941976866E-05
(PID.TID 0000.0001) %MON forcing_empmr_sd             =   1.3238385870664E-04
(PID.TID 0000.0001) %MON forcing_empmr_del2           =   2.7392693366943E-09
(PID.TID 0000.0001) %MON forcing_fu_max               =   8.9081736779286E-01
(PID.TID 0000.0001) %MON forcing_fu_min               =  -3.9804597828177E-01
(PID.TID 0000.0001) %MON forcing_fu_mean              =   6.3890783691550E-02
(PID.TID 0000.0001) %MON forcing_fu_sd                =   1.5550730322486E-01
(PID.TID 0000.0001) %MON forcing_fu_del2              =   3.7691854272849E-07
(PID.TID 0000.0001) %MON forcing_fv_max               =   4.0142177104856E-01
(PID.TID 0000.0001) %MON forcing_fv_min               =  -5.7184190371912E-01
(PID.TID 0000.0001) %MON forcing_fv_mean              =   1.0988610380353E-02
(PID.TID 0000.0001) %MON forcing_fv_sd                =   1.0214364532112E-01
(PID.TID 0000.0001) %MON forcing_fv_del2              =   2.8901369768546E-07
(PID.TID 0000.0001) %MON trAdv_CFL_u_max              =   7.7261123413161E-02
(PID.TID 0000.0001) %MON trAdv_CFL_v_max              =   1.1683508903122E-01
(PID.TID 0000.0001) %MON trAdv_CFL_w_max              =   5.2708446298517E-01
(PID.TID 0000.0001) %MON advcfl_uvel_max              =   7.7261122361181E-02
(PID.TID 0000.0001) %MON advcfl_vvel_max              =   1.1687269333663E-01
(PID.TID 0000.0001) %MON advcfl_wvel_max              =   5.1829972193541E-01
(PID.TID 0000.0001) %MON advcfl_W_hf_max              =   5.2708446298517E-01
(PID.TID 0000.0001) %MON pe_b_mean                    =  -1.4653005085250E-03
(PID.TID 0000.0001) %MON ke_max                       =   1.6988098942547E+00
(PID.TID 0000.0001) %MON ke_mean                      =   2.5886544480805E-03
(PID.TID 0000.0001) %MON ke_vol                       =   4.5818637279721E+16
(PID.TID 0000.0001) %MON vort_r_min                   =  -5.3559811521827E-04
(PID.TID 0000.0001) %MON vort_r_max                   =   5.4491123703673E-04
(PID.TID 0000.0001) %MON vort_a_mean                  =   8.2147630151867E-05
(PID.TID 0000.0001) %MON vort_a_sd                    =   1.0154640900406E-05
(PID.TID 0000.0001) %MON vort_p_mean                  =   8.4848851693259E-05
(PID.TID 0000.0001) %MON vort_p_sd                    =   3.4982229347429E-05
(PID.TID 0000.0001) %MON surfExpan_theta_mean         =  -4.6069303661971E-04
(PID.TID 0000.0001) %MON surfExpan_salt_mean          =  -1.1169155116223E-03
(PID.TID 0000.0001) // =======================================================
(PID.TID 0000.0001) // End MONITOR dynamic field statistics
(PID.TID 0000.0001) // =======================================================
(PID.TID 0000.0001) // =======================================================
(PID.TID 0000.0001) // Begin OBCS MONITOR field statistics
(PID.TID 0000.0001) // =======================================================
(PID.TID 0000.0001) %MON obc_N_vVel_max               =   6.9592900258898E-01
(PID.TID 0000.0001) %MON obc_N_vVel_min               =  -4.5031782309482E-01
(PID.TID 0000.0001) %MON obc_N_vVel_mean              =   1.4065129783609E-02
(PID.TID 0000.0001) %MON obc_N_vVel_sd                =   6.5109534295718E-02
(PID.TID 0000.0001) %MON obc_N_vVel_Int               =   2.0134352083080E+08
(PID.TID 0000.0001) %MON obc_S_vVel_max               =   1.5733327938329E+00
(PID.TID 0000.0001) %MON obc_S_vVel_min               =  -2.6145258707234E-01
(PID.TID 0000.0001) %MON obc_S_vVel_mean              =  -5.0730266586158E-03
(PID.TID 0000.0001) %MON obc_S_vVel_sd                =   3.6278993685305E-02
(PID.TID 0000.0001) %MON obc_S_vVel_Int               =  -1.5443764160630E+08
(PID.TID 0000.0001) %MON obc_N_theta_max              =   1.6389715716732E+01
(PID.TID 0000.0001) %MON obc_N_theta_min              =   1.8895913648355E+00
(PID.TID 0000.0001) %MON obc_N_theta_mean             =   5.1588845079383E+00
(PID.TID 0000.0001) %MON obc_N_theta_sd               =   3.4826131499334E+00
(PID.TID 0000.0001) %MON obc_S_theta_max              =   2.5543605574674E+01
(PID.TID 0000.0001) %MON obc_S_theta_min              =   1.4633007926210E+00
(PID.TID 0000.0001) %MON obc_S_theta_mean             =   5.4595473148919E+00
(PID.TID 0000.0001) %MON obc_S_theta_sd               =   5.3558867108083E+00
(PID.TID 0000.0001) %MON obc_N_salt_max               =   3.5910862339236E+01
(PID.TID 0000.0001) %MON obc_N_salt_min               =   3.3295085604278E+01
(PID.TID 0000.0001) %MON obc_N_salt_mean              =   3.5114560468523E+01
(PID.TID 0000.0001) %MON obc_N_salt_sd                =   3.0984777908893E-01
(PID.TID 0000.0001) %MON obc_S_salt_max               =   3.7318257133628E+01
(PID.TID 0000.0001) %MON obc_S_salt_min               =   3.4844694992682E+01
(PID.TID 0000.0001) %MON obc_S_salt_mean              =   3.5168372003918E+01
(PID.TID 0000.0001) %MON obc_S_salt_sd                =   4.5716654406676E-01
(PID.TID 0000.0001) // =======================================================
(PID.TID 0000.0001) // End OBCS MONITOR field statistics
(PID.TID 0000.0001) // =======================================================
(PID.TID 0000.0001) // =======================================================
(PID.TID 0000.0001) // Begin MONITOR EXF statistics
(PID.TID 0000.0001) // =======================================================
(PID.TID 0000.0001) %MON exf_tsnumber                 =                    13
(PID.TID 0000.0001) %MON exf_time_sec                 =   3.1200000000000E+03
(PID.TID 0000.0001) %MON exf_ustress_max              =   9.0455391813227E-01
(PID.TID 0000.0001) %MON exf_ustress_min              =  -3.9588576473888E-01
(PID.TID 0000.0001) %MON exf_ustress_mean             =   6.4047805510886E-02
(PID.TID 0000.0001) %MON exf_ustress_sd               =   1.5577401537367E-01
(PID.TID 0000.0001) %MON exf_ustress_del2             =   4.3171666899511E-07
(PID.TID 0000.0001) %MON exf_vstress_max              =   4.0638278134191E-01
(PID.TID 0000.0001) %MON exf_vstress_min              =  -5.6889345511139E-01
(PID.TID 0000.0001) %MON exf_vstress_mean             =   1.1072263330338E-02
(PID.TID 0000.0001) %MON exf_vstress_sd               =   1.0232310849089E-01
(PID.TID 0000.0001) %MON exf_vstress_del2             =   3.2850425716462E-07
(PID.TID 0000.0001) %MON exf_hflux_max                =   1.1937254041020E+03
(PID.TID 0000.0001) %MON exf_hflux_min                =  -2.9934001652644E+02
(PID.TID 0000.0001) %MON exf_hflux_mean               =   2.3969800167470E+02
(PID.TID 0000.0001) %MON exf_hflux_sd                 =   1.4105697386082E+02
(PID.TID 0000.0001) %MON exf_hflux_del2               =   1.0925855107667E-01
(PID.TID 0000.0001) %MON exf_sflux_max                =   2.5977933030475E-07
(PID.TID 0000.0001) %MON exf_sflux_min                =  -1.8124523359250E-06
(PID.TID 0000.0001) %MON exf_sflux_mean               =   1.6143340446014E-08
(PID.TID 0000.0001) %MON exf_sflux_sd                 =   1.3269701863670E-07
(PID.TID 0000.0001) %MON exf_sflux_del2               =   5.2815760330982E-11
(PID.TID 0000.0001) %MON exf_uwind_max                =   2.0177624344683E+01
(PID.TID 0000.0001) %MON exf_uwind_min                =  -1.4772388338227E+01
(PID.TID 0000.0001) %MON exf_uwind_mean               =   2.4867582675406E+00
(PID.TID 0000.0001) %MON exf_uwind_sd                 =   6.6712183438629E+00
(PID.TID 0000.0001) %MON exf_uwind_del2               =   2.8413366626710E-03
(PID.TID 0000.0001) %MON exf_vwind_max                =   1.4674277956468E+01
(PID.TID 0000.0001) %MON exf_vwind_min                =  -1.2847304463745E+01
(PID.TID 0000.0001) %MON exf_vwind_mean               =   8.6708214483360E-01
(PID.TID 0000.0001) %MON exf_vwind_sd                 =   5.1867085563865E+00
(PID.TID 0000.0001) %MON exf_vwind_del2               =   2.0925403781613E-03
(PID.TID 0000.0001) %MON exf_wspeed_max               =   2.0277672246367E+01
(PID.TID 0000.0001) %MON exf_wspeed_min               =   1.1373465309316E-02
(PID.TID 0000.0001) %MON exf_wspeed_mean              =   7.7160620502827E+00
(PID.TID 0000.0001) %MON exf_wspeed_sd                =   4.3365060133297E+00
(PID.TID 0000.0001) %MON exf_wspeed_del2              =   3.5283968802798E-03
(PID.TID 0000.0001) %MON exf_atemp_max                =   2.9814925941584E+02
(PID.TID 0000.0001) %MON exf_atemp_min                =   2.7421894296331E+02
(PID.TID 0000.0001) %MON exf_atemp_mean               =   2.9066157111295E+02
(PID.TID 0000.0001) %MON exf_atemp_sd                 =   3.9477200203663E+00
(PID.TID 0000.0001) %MON exf_atemp_del2               =   6.8340585425561E-03
(PID.TID 0000.0001) %MON exf_aqh_max                  =   1.6731653621973E-02
(PID.TID 0000.0001) %MON exf_aqh_min                  =   2.7102318615487E-03
(PID.TID 0000.0001) %MON exf_aqh_mean                 =   9.4133265149605E-03
(PID.TID 0000.0001) %MON exf_aqh_sd                   =   2.8788045368042E-03
(PID.TID 0000.0001) %MON exf_aqh_del2                 =   3.7473124270333E-06
(PID.TID 0000.0001) %MON exf_lwflux_max               =   1.5421766409712E+02
(PID.TID 0000.0001) %MON exf_lwflux_min               =  -2.2891227768779E-01
(PID.TID 0000.0001) %MON exf_lwflux_mean              =   6.5330090237433E+01
(PID.TID 0000.0001) %MON exf_lwflux_sd                =   2.6491779788141E+01
(PID.TID 0000.0001) %MON exf_lwflux_del2              =   2.7053181056416E-02
(PID.TID 0000.0001) %MON exf_evap_max                 =   2.8940457872165E-07
(PID.TID 0000.0001) %MON exf_evap_min                 =  -9.9819479890164E-08
(PID.TID 0000.0001) %MON exf_evap_mean                =   5.9304939426345E-08
(PID.TID 0000.0001) %MON exf_evap_sd                  =   4.2158550810904E-08
(PID.TID 0000.0001) %MON exf_evap_del2                =   2.8621036574997E-11
(PID.TID 0000.0001) %MON exf_precip_max               =   1.9919087312383E-06
(PID.TID 0000.0001) %MON exf_precip_min               =   0.0000000000000E+00
(PID.TID 0000.0001) %MON exf_precip_mean              =   4.1573119575111E-08
(PID.TID 0000.0001) %MON exf_precip_sd                =   1.3847173982181E-07
(PID.TID 0000.0001) %MON exf_precip_del2              =   5.7911885402760E-11
(PID.TID 0000.0001) %MON exf_swflux_max               =   0.0000000000000E+00
(PID.TID 0000.0001) %MON exf_swflux_min               =   0.0000000000000E+00
(PID.TID 0000.0001) %MON exf_swflux_mean              =   0.0000000000000E+00
(PID.TID 0000.0001) %MON exf_swflux_sd                =   0.0000000000000E+00
(PID.TID 0000.0001) %MON exf_swflux_del2              =   0.0000000000000E+00
(PID.TID 0000.0001) %MON exf_swdown_max               =   0.0000000000000E+00
(PID.TID 0000.0001) %MON exf_swdown_min               =   0.0000000000000E+00
(PID.TID 0000.0001) %MON exf_swdown_mean              =   0.0000000000000E+00
(PID.TID 0000.0001) %MON exf_swdown_sd                =   0.0000000000000E+00
(PID.TID 0000.0001) %MON exf_swdown_del2              =   0.0000000000000E+00
(PID.TID 0000.0001) %MON exf_lwdown_max               =   4.1840604284666E+02
(PID.TID 0000.0001) %MON exf_lwdown_min               =   2.2445126639892E+02
(PID.TID 0000.0001) %MON exf_lwdown_mean              =   3.4969486171956E+02
(PID.TID 0000.0001) %MON exf_lwdown_sd                =   3.1528634700620E+01
(PID.TID 0000.0001) %MON exf_lwdown_del2              =   1.3543592526740E-01
(PID.TID 0000.0001) %MON exf_apressure_max            =   1.0281513960403E+05
(PID.TID 0000.0001) %MON exf_apressure_min            =   1.0001593693690E+05
(PID.TID 0000.0001) %MON exf_apressure_mean           =   1.0216918376558E+05
(PID.TID 0000.0001) %MON exf_apressure_sd             =   4.9886755904092E+02
(PID.TID 0000.0001) %MON exf_apressure_del2           =   3.9521253763380E+01
(PID.TID 0000.0001) %MON exf_runoff_max               =   4.4374791284855E-08
(PID.TID 0000.0001) %MON exf_runoff_min               =   0.0000000000000E+00
(PID.TID 0000.0001) %MON exf_runoff_mean              =   1.5884794052194E-09
(PID.TID 0000.0001) %MON exf_runoff_sd                =   5.3901957917178E-09
(PID.TID 0000.0001) %MON exf_runoff_del2              =   2.2191214937507E-12
(PID.TID 0000.0001) // =======================================================
(PID.TID 0000.0001) // End MONITOR EXF statistics
(PID.TID 0000.0001) // =======================================================
 cg2d: Sum(rhs),rhsMax =   2.12212620234646E+03  1.36880823303976E-01
(PID.TID 0000.0001)      cg2d_init_res =   1.44495396851891E+00
(PID.TID 0000.0001)      cg2d_iters(min,last) =      -1     311
(PID.TID 0000.0001)      cg2d_last_res =   7.02863214548899E-12
(PID.TID 0000.0001) // =======================================================
(PID.TID 0000.0001) // Begin MONITOR dynamic field statistics
(PID.TID 0000.0001) // =======================================================
(PID.TID 0000.0001) %MON time_tsnumber                =                    14
(PID.TID 0000.0001) %MON time_secondsf                =   3.3600000000000E+03
(PID.TID 0000.0001) %MON dynstat_eta_max              =   9.7156649913187E-01
(PID.TID 0000.0001) %MON dynstat_eta_min              =  -1.5502221808974E+00
(PID.TID 0000.0001) %MON dynstat_eta_mean             =  -7.2167360299057E-02
(PID.TID 0000.0001) %MON dynstat_eta_sd               =   2.8179726526744E-01
(PID.TID 0000.0001) %MON dynstat_eta_del2             =   2.5107133596803E-06
(PID.TID 0000.0001) %MON dynstat_uvel_max             =   1.2685638713884E+00
(PID.TID 0000.0001) %MON dynstat_uvel_min             =  -1.0613323635320E+00
(PID.TID 0000.0001) %MON dynstat_uvel_mean            =   1.3500508005610E-03
(PID.TID 0000.0001) %MON dynstat_uvel_sd              =   5.2328941693316E-02
(PID.TID 0000.0001) %MON dynstat_uvel_del2            =   5.5556774927749E-07
(PID.TID 0000.0001) %MON dynstat_vvel_max             =   1.8410337251786E+00
(PID.TID 0000.0001) %MON dynstat_vvel_min             =  -9.1705709399750E-01
(PID.TID 0000.0001) %MON dynstat_vvel_mean            =  -4.7305715510551E-03
(PID.TID 0000.0001) %MON dynstat_vvel_sd              =   4.9624486835731E-02
(PID.TID 0000.0001) %MON dynstat_vvel_del2            =   5.0320126965278E-07
(PID.TID 0000.0001) %MON dynstat_wvel_max             =   3.8185132853603E-02
(PID.TID 0000.0001) %MON dynstat_wvel_min             =  -3.2883684837976E-02
(PID.TID 0000.0001) %MON dynstat_wvel_mean            =  -1.8951716602602E-05
(PID.TID 0000.0001) %MON dynstat_wvel_sd              =   6.1267508543048E-04
(PID.TID 0000.0001) %MON dynstat_wvel_del2            =   7.0759273049787E-08
(PID.TID 0000.0001) %MON dynstat_theta_max            =   2.6148085186691E+01
(PID.TID 0000.0001) %MON dynstat_theta_min            =   1.4688655566894E+00
(PID.TID 0000.0001) %MON dynstat_theta_mean           =   5.5099157366433E+00
(PID.TID 0000.0001) %MON dynstat_theta_sd             =   4.7733412343647E+00
(PID.TID 0000.0001) %MON dynstat_theta_del2           =   4.0317885454587E-06
(PID.TID 0000.0001) %MON dynstat_salt_max             =   3.9143566309840E+01
(PID.TID 0000.0001) %MON dynstat_salt_min             =   3.3101306658087E+01
(PID.TID 0000.0001) %MON dynstat_salt_mean            =   3.5173367412539E+01
(PID.TID 0000.0001) %MON dynstat_salt_sd              =   3.7891682302847E-01
(PID.TID 0000.0001) %MON dynstat_salt_del2            =   5.3069117378580E-07
(PID.TID 0000.0001) %MON forcing_qnet_max             =   1.2121550260358E+03
(PID.TID 0000.0001) %MON forcing_qnet_min             =  -3.0429593286167E+02
(PID.TID 0000.0001) %MON forcing_qnet_mean            =   2.4175215020267E+02
(PID.TID 0000.0001) %MON forcing_qnet_sd              =   1.4269648514837E+02
(PID.TID 0000.0001) %MON forcing_qnet_del2            =   1.6824980982533E-03
(PID.TID 0000.0001) %MON forcing_qsw_max              =   0.0000000000000E+00
(PID.TID 0000.0001) %MON forcing_qsw_min              =   0.0000000000000E+00
(PID.TID 0000.0001) %MON forcing_qsw_mean             =   0.0000000000000E+00
(PID.TID 0000.0001) %MON forcing_qsw_sd               =   0.0000000000000E+00
(PID.TID 0000.0001) %MON forcing_qsw_del2             =   0.0000000000000E+00
(PID.TID 0000.0001) %MON forcing_empmr_max            =   2.5977933030475E-04
(PID.TID 0000.0001) %MON forcing_empmr_min            =  -1.8124523359250E-03
(PID.TID 0000.0001) %MON forcing_empmr_mean           =   1.6143340446014E-05
(PID.TID 0000.0001) %MON forcing_empmr_sd             =   1.3269701863670E-04
(PID.TID 0000.0001) %MON forcing_empmr_del2           =   2.6587660184661E-09
(PID.TID 0000.0001) %MON forcing_fu_max               =   9.0414176975075E-01
(PID.TID 0000.0001) %MON forcing_fu_min               =  -3.9587432728498E-01
(PID.TID 0000.0001) %MON forcing_fu_mean              =   6.4109642205156E-02
(PID.TID 0000.0001) %MON forcing_fu_sd                =   1.5583468993997E-01
(PID.TID 0000.0001) %MON forcing_fu_del2              =   3.9338143322734E-07
(PID.TID 0000.0001) %MON forcing_fv_max               =   4.0627661183007E-01
(PID.TID 0000.0001) %MON forcing_fv_min               =  -5.7366292265073E-01
(PID.TID 0000.0001) %MON forcing_fv_mean              =   1.1055657266814E-02
(PID.TID 0000.0001) %MON forcing_fv_sd                =   1.0245548651767E-01
(PID.TID 0000.0001) %MON forcing_fv_del2              =   3.0647409036084E-07
(PID.TID 0000.0001) %MON trAdv_CFL_u_max              =   7.6964737855186E-02
(PID.TID 0000.0001) %MON trAdv_CFL_v_max              =   1.1675706259069E-01
(PID.TID 0000.0001) %MON trAdv_CFL_w_max              =   5.3105870832721E-01
(PID.TID 0000.0001) %MON advcfl_uvel_max              =   7.6964736807241E-02
(PID.TID 0000.0001) %MON advcfl_vvel_max              =   1.1679464178267E-01
(PID.TID 0000.0001) %MON advcfl_wvel_max              =   5.2220772985509E-01
(PID.TID 0000.0001) %MON advcfl_W_hf_max              =   5.3105870832721E-01
(PID.TID 0000.0001) %MON pe_b_mean                    =  -1.6523027673337E-03
(PID.TID 0000.0001) %MON ke_max                       =   1.6969248157894E+00
(PID.TID 0000.0001) %MON ke_mean                      =   2.5933005428638E-03
(PID.TID 0000.0001) %MON ke_vol                       =   4.5818637279721E+16
(PID.TID 0000.0001) %MON vort_r_min                   =  -5.8625569850228E-04
(PID.TID 0000.0001) %MON vort_r_max                   =   5.5174673758759E-04
(PID.TID 0000.0001) %MON vort_a_mean                  =   8.2147629413324E-05
(PID.TID 0000.0001) %MON vort_a_sd                    =   1.0157947998527E-05
(PID.TID 0000.0001) %MON vort_p_mean                  =   8.4848850930432E-05
(PID.TID 0000.0001) %MON vort_p_sd                    =   3.4985706901993E-05
(PID.TID 0000.0001) %MON surfExpan_theta_mean         =  -4.9802988745438E-04
(PID.TID 0000.0001) %MON surfExpan_salt_mean          =  -1.1772041065423E-03
(PID.TID 0000.0001) // =======================================================
(PID.TID 0000.0001) // End MONITOR dynamic field statistics
(PID.TID 0000.0001) // =======================================================
(PID.TID 0000.0001) // =======================================================
(PID.TID 0000.0001) // Begin OBCS MONITOR field statistics
(PID.TID 0000.0001) // =======================================================
(PID.TID 0000.0001) %MON obc_N_vVel_max               =   6.9567708430191E-01
(PID.TID 0000.0001) %MON obc_N_vVel_min               =  -4.4905489986082E-01
(PID.TID 0000.0001) %MON obc_N_vVel_mean              =   1.3966428206339E-02
(PID.TID 0000.0001) %MON obc_N_vVel_sd                =   6.5068817677862E-02
(PID.TID 0000.0001) %MON obc_N_vVel_Int               =   1.9993059941558E+08
(PID.TID 0000.0001) %MON obc_S_vVel_max               =   1.5746844199721E+00
(PID.TID 0000.0001) %MON obc_S_vVel_min               =  -2.6148655783463E-01
(PID.TID 0000.0001) %MON obc_S_vVel_mean              =  -5.7393347304351E-03
(PID.TID 0000.0001) %MON obc_S_vVel_sd                =   3.6331740764746E-02
(PID.TID 0000.0001) %MON obc_S_vVel_Int               =  -1.7472199138795E+08
(PID.TID 0000.0001) %MON obc_N_theta_max              =   1.6389627614545E+01
(PID.TID 0000.0001) %MON obc_N_theta_min              =   1.8895914139009E+00
(PID.TID 0000.0001) %MON obc_N_theta_mean             =   5.1588771237883E+00
(PID.TID 0000.0001) %MON obc_N_theta_sd               =   3.4826038600191E+00
(PID.TID 0000.0001) %MON obc_S_theta_max              =   2.5543502825894E+01
(PID.TID 0000.0001) %MON obc_S_theta_min              =   1.4633011889082E+00
(PID.TID 0000.0001) %MON obc_S_theta_mean             =   5.4595465098673E+00
(PID.TID 0000.0001) %MON obc_S_theta_sd               =   5.3558828399123E+00
(PID.TID 0000.0001) %MON obc_N_salt_max               =   3.5910861930873E+01
(PID.TID 0000.0001) %MON obc_N_salt_min               =   3.3295091106912E+01
(PID.TID 0000.0001) %MON obc_N_salt_mean              =   3.5114560172537E+01
(PID.TID 0000.0001) %MON obc_N_salt_sd                =   3.0984766008600E-01
(PID.TID 0000.0001) %MON obc_S_salt_max               =   3.7318250249244E+01
(PID.TID 0000.0001) %MON obc_S_salt_min               =   3.4844695044902E+01
(PID.TID 0000.0001) %MON obc_S_salt_mean              =   3.5168371932002E+01
(PID.TID 0000.0001) %MON obc_S_salt_sd                =   4.5716619306262E-01
(PID.TID 0000.0001) // =======================================================
(PID.TID 0000.0001) // End OBCS MONITOR field statistics
(PID.TID 0000.0001) // =======================================================
(PID.TID 0000.0001) // =======================================================
(PID.TID 0000.0001) // Begin MONITOR EXF statistics
(PID.TID 0000.0001) // =======================================================
(PID.TID 0000.0001) %MON exf_tsnumber                 =                    14
(PID.TID 0000.0001) %MON exf_time_sec                 =   3.3600000000000E+03
(PID.TID 0000.0001) %MON exf_ustress_max              =   9.1844923461972E-01
(PID.TID 0000.0001) %MON exf_ustress_min              =  -3.9385487877515E-01
(PID.TID 0000.0001) %MON exf_ustress_mean             =   6.4289974518365E-02
(PID.TID 0000.0001) %MON exf_ustress_sd               =   1.5617483565283E-01
(PID.TID 0000.0001) %MON exf_ustress_del2             =   4.5093428531428E-07
(PID.TID 0000.0001) %MON exf_vstress_max              =   4.1177600592682E-01
(PID.TID 0000.0001) %MON exf_vstress_min              =  -5.7073610471824E-01
(PID.TID 0000.0001) %MON exf_vstress_mean             =   1.1138447903495E-02
(PID.TID 0000.0001) %MON exf_vstress_sd               =   1.0270022865179E-01
(PID.TID 0000.0001) %MON exf_vstress_del2             =   3.5001957608760E-07
(PID.TID 0000.0001) %MON exf_hflux_max                =   1.2008541644507E+03
(PID.TID 0000.0001) %MON exf_hflux_min                =  -3.0215950690957E+02
(PID.TID 0000.0001) %MON exf_hflux_mean               =   2.3979885261983E+02
(PID.TID 0000.0001) %MON exf_hflux_sd                 =   1.4134098911665E+02
(PID.TID 0000.0001) %MON exf_hflux_del2               =   1.0937202445548E-01
(PID.TID 0000.0001) %MON exf_sflux_max                =   2.6131408527281E-07
(PID.TID 0000.0001) %MON exf_sflux_min                =  -1.8312669890589E-06
(PID.TID 0000.0001) %MON exf_sflux_mean               =   1.5930938042018E-08
(PID.TID 0000.0001) %MON exf_sflux_sd                 =   1.3331645800125E-07
(PID.TID 0000.0001) %MON exf_sflux_del2               =   5.2957965915848E-11
(PID.TID 0000.0001) %MON exf_uwind_max                =   2.0299386541419E+01
(PID.TID 0000.0001) %MON exf_uwind_min                =  -1.4750948924951E+01
(PID.TID 0000.0001) %MON exf_uwind_mean               =   2.4887120141028E+00
(PID.TID 0000.0001) %MON exf_uwind_sd                 =   6.6742252102754E+00
(PID.TID 0000.0001) %MON exf_uwind_del2               =   2.8427155101970E-03
(PID.TID 0000.0001) %MON exf_vwind_max                =   1.4765402624443E+01
(PID.TID 0000.0001) %MON exf_vwind_min                =  -1.2876294061699E+01
(PID.TID 0000.0001) %MON exf_vwind_mean               =   8.6869303278588E-01
(PID.TID 0000.0001) %MON exf_vwind_sd                 =   5.1930618037238E+00
(PID.TID 0000.0001) %MON exf_vwind_del2               =   2.0955308332143E-03
(PID.TID 0000.0001) %MON exf_wspeed_max               =   2.0408805861146E+01
(PID.TID 0000.0001) %MON exf_wspeed_min               =   1.4868814638262E-02
(PID.TID 0000.0001) %MON exf_wspeed_mean              =   7.7201984698856E+00
(PID.TID 0000.0001) %MON exf_wspeed_sd                =   4.3428128804609E+00
(PID.TID 0000.0001) %MON exf_wspeed_del2              =   3.5312615773163E-03
(PID.TID 0000.0001) %MON exf_atemp_max                =   2.9814706212742E+02
(PID.TID 0000.0001) %MON exf_atemp_min                =   2.7419334175467E+02
(PID.TID 0000.0001) %MON exf_atemp_mean               =   2.9065844990676E+02
(PID.TID 0000.0001) %MON exf_atemp_sd                 =   3.9488923540295E+00
(PID.TID 0000.0001) %MON exf_atemp_del2               =   6.8329438603542E-03
(PID.TID 0000.0001) %MON exf_aqh_max                  =   1.6724667321099E-02
(PID.TID 0000.0001) %MON exf_aqh_min                  =   2.7079371637848E-03
(PID.TID 0000.0001) %MON exf_aqh_mean                 =   9.4121383621464E-03
(PID.TID 0000.0001) %MON exf_aqh_sd                   =   2.8803678201485E-03
(PID.TID 0000.0001) %MON exf_aqh_del2                 =   3.7469751676613E-06
(PID.TID 0000.0001) %MON exf_lwflux_max               =   1.5448833053562E+02
(PID.TID 0000.0001) %MON exf_lwflux_min               =  -2.6001566389216E-01
(PID.TID 0000.0001) %MON exf_lwflux_mean              =   6.5312528311523E+01
(PID.TID 0000.0001) %MON exf_lwflux_sd                =   2.6486947701939E+01
(PID.TID 0000.0001) %MON exf_lwflux_del2              =   2.7044343842371E-02
(PID.TID 0000.0001) %MON exf_evap_max                 =   2.9165907416801E-07
(PID.TID 0000.0001) %MON exf_evap_min                 =  -1.0072228838846E-07
(PID.TID 0000.0001) %MON exf_evap_mean                =   5.9335672294577E-08
(PID.TID 0000.0001) %MON exf_evap_sd                  =   4.2219327439559E-08
(PID.TID 0000.0001) %MON exf_evap_del2                =   2.8651207990643E-11
(PID.TID 0000.0001) %MON exf_precip_max               =   2.0113592581988E-06
(PID.TID 0000.0001) %MON exf_precip_min               =   0.0000000000000E+00
(PID.TID 0000.0001) %MON exf_precip_mean              =   4.1816254847339E-08
(PID.TID 0000.0001) %MON exf_precip_sd                =   1.3924115911834E-07
(PID.TID 0000.0001) %MON exf_precip_del2              =   5.8140031239136E-11
(PID.TID 0000.0001) %MON exf_swflux_max               =   0.0000000000000E+00
(PID.TID 0000.0001) %MON exf_swflux_min               =   0.0000000000000E+00
(PID.TID 0000.0001) %MON exf_swflux_mean              =   0.0000000000000E+00
(PID.TID 0000.0001) %MON exf_swflux_sd                =   0.0000000000000E+00
(PID.TID 0000.0001) %MON exf_swflux_del2              =   0.0000000000000E+00
(PID.TID 0000.0001) %MON exf_swdown_max               =   0.0000000000000E+00
(PID.TID 0000.0001) %MON exf_swdown_min               =   0.0000000000000E+00
(PID.TID 0000.0001) %MON exf_swdown_mean              =   0.0000000000000E+00
(PID.TID 0000.0001) %MON exf_swdown_sd                =   0.0000000000000E+00
(PID.TID 0000.0001) %MON exf_swdown_del2              =   0.0000000000000E+00
(PID.TID 0000.0001) %MON exf_lwdown_max               =   4.1843716545593E+02
(PID.TID 0000.0001) %MON exf_lwdown_min               =   2.2422663445087E+02
(PID.TID 0000.0001) %MON exf_lwdown_mean              =   3.4970935287256E+02
(PID.TID 0000.0001) %MON exf_lwdown_sd                =   3.1487341464055E+01
(PID.TID 0000.0001) %MON exf_lwdown_del2              =   1.3544134476363E-01
(PID.TID 0000.0001) %MON exf_apressure_max            =   1.0281834697520E+05
(PID.TID 0000.0001) %MON exf_apressure_min            =   1.0001465908832E+05
(PID.TID 0000.0001) %MON exf_apressure_mean           =   1.0216996107213E+05
(PID.TID 0000.0001) %MON exf_apressure_sd             =   4.9898322972271E+02
(PID.TID 0000.0001) %MON exf_apressure_del2           =   3.9521561661577E+01
(PID.TID 0000.0001) %MON exf_runoff_max               =   4.4374791284855E-08
(PID.TID 0000.0001) %MON exf_runoff_min               =   0.0000000000000E+00
(PID.TID 0000.0001) %MON exf_runoff_mean              =   1.5884794052194E-09
(PID.TID 0000.0001) %MON exf_runoff_sd                =   5.3901957917178E-09
(PID.TID 0000.0001) %MON exf_runoff_del2              =   2.2191214937507E-12
(PID.TID 0000.0001) // =======================================================
(PID.TID 0000.0001) // End MONITOR EXF statistics
(PID.TID 0000.0001) // =======================================================
 cg2d: Sum(rhs),rhsMax =   2.36758988768446E+03  1.36578688621571E-01
(PID.TID 0000.0001)      cg2d_init_res =   1.47807463537718E+00
(PID.TID 0000.0001)      cg2d_iters(min,last) =      -1     311
(PID.TID 0000.0001)      cg2d_last_res =   6.73003072186076E-12
(PID.TID 0000.0001) // =======================================================
(PID.TID 0000.0001) // Begin MONITOR dynamic field statistics
(PID.TID 0000.0001) // =======================================================
(PID.TID 0000.0001) %MON time_tsnumber                =                    15
(PID.TID 0000.0001) %MON time_secondsf                =   3.6000000000000E+03
(PID.TID 0000.0001) %MON dynstat_eta_max              =   9.6058707631192E-01
(PID.TID 0000.0001) %MON dynstat_eta_min              =  -1.6457515834114E+00
(PID.TID 0000.0001) %MON dynstat_eta_mean             =  -8.0514868661441E-02
(PID.TID 0000.0001) %MON dynstat_eta_sd               =   2.8956471764541E-01
(PID.TID 0000.0001) %MON dynstat_eta_del2             =   2.5826590783381E-06
(PID.TID 0000.0001) %MON dynstat_uvel_max             =   1.2645132269070E+00
(PID.TID 0000.0001) %MON dynstat_uvel_min             =  -1.0975457480344E+00
(PID.TID 0000.0001) %MON dynstat_uvel_mean            =   1.1422732517603E-03
(PID.TID 0000.0001) %MON dynstat_uvel_sd              =   5.2354053628314E-02
(PID.TID 0000.0001) %MON dynstat_uvel_del2            =   5.6250441159073E-07
(PID.TID 0000.0001) %MON dynstat_vvel_max             =   1.8398199649758E+00
(PID.TID 0000.0001) %MON dynstat_vvel_min             =  -9.4917101640504E-01
(PID.TID 0000.0001) %MON dynstat_vvel_mean            =  -4.8723324995692E-03
(PID.TID 0000.0001) %MON dynstat_vvel_sd              =   4.9678686315406E-02
(PID.TID 0000.0001) %MON dynstat_vvel_del2            =   5.1112231011658E-07
(PID.TID 0000.0001) %MON dynstat_wvel_max             =   3.9523427611133E-02
(PID.TID 0000.0001) %MON dynstat_wvel_min             =  -3.3069747352919E-02
(PID.TID 0000.0001) %MON dynstat_wvel_mean            =  -1.9974449517677E-05
(PID.TID 0000.0001) %MON dynstat_wvel_sd              =   6.1437023362052E-04
(PID.TID 0000.0001) %MON dynstat_wvel_del2            =   7.0663620187050E-08
(PID.TID 0000.0001) %MON dynstat_theta_max            =   2.6149446587862E+01
(PID.TID 0000.0001) %MON dynstat_theta_min            =   1.4688657718423E+00
(PID.TID 0000.0001) %MON dynstat_theta_mean           =   5.5099316804537E+00
(PID.TID 0000.0001) %MON dynstat_theta_sd             =   4.7733469692493E+00
(PID.TID 0000.0001) %MON dynstat_theta_del2           =   4.0324143813926E-06
(PID.TID 0000.0001) %MON dynstat_salt_max             =   3.9138981368771E+01
(PID.TID 0000.0001) %MON dynstat_salt_min             =   3.3102456355704E+01
(PID.TID 0000.0001) %MON dynstat_salt_mean            =   3.5173367903226E+01
(PID.TID 0000.0001) %MON dynstat_salt_sd              =   3.7891792377361E-01
(PID.TID 0000.0001) %MON dynstat_salt_del2            =   5.3246878092700E-07
(PID.TID 0000.0001) %MON forcing_qnet_max             =   1.2194232976171E+03
(PID.TID 0000.0001) %MON forcing_qnet_min             =  -3.0715375177081E+02
(PID.TID 0000.0001) %MON forcing_qnet_mean            =   2.4183973380423E+02
(PID.TID 0000.0001) %MON forcing_qnet_sd              =   1.4295844785402E+02
(PID.TID 0000.0001) %MON forcing_qnet_del2            =   1.6890071624066E-03
(PID.TID 0000.0001) %MON forcing_qsw_max              =   0.0000000000000E+00
(PID.TID 0000.0001) %MON forcing_qsw_min              =   0.0000000000000E+00
(PID.TID 0000.0001) %MON forcing_qsw_mean             =   0.0000000000000E+00
(PID.TID 0000.0001) %MON forcing_qsw_sd               =   0.0000000000000E+00
(PID.TID 0000.0001) %MON forcing_qsw_del2             =   0.0000000000000E+00
(PID.TID 0000.0001) %MON forcing_empmr_max            =   2.6131408527281E-04
(PID.TID 0000.0001) %MON forcing_empmr_min            =  -1.8312669890589E-03
(PID.TID 0000.0001) %MON forcing_empmr_mean           =   1.5930938042018E-05
(PID.TID 0000.0001) %MON forcing_empmr_sd             =   1.3331645800125E-04
(PID.TID 0000.0001) %MON forcing_empmr_del2           =   2.6146965421559E-09
(PID.TID 0000.0001) %MON forcing_fu_max               =   9.1823950270199E-01
(PID.TID 0000.0001) %MON forcing_fu_min               =  -3.9384741302305E-01
(PID.TID 0000.0001) %MON forcing_fu_mean              =   6.4352368287184E-02
(PID.TID 0000.0001) %MON forcing_fu_sd                =   1.5623562749281E-01
(PID.TID 0000.0001) %MON forcing_fu_del2              =   4.1291252822177E-07
(PID.TID 0000.0001) %MON forcing_fv_max               =   4.1165064140194E-01
(PID.TID 0000.0001) %MON forcing_fv_min               =  -5.7564025254151E-01
(PID.TID 0000.0001) %MON forcing_fv_mean              =   1.1122293460663E-02
(PID.TID 0000.0001) %MON forcing_fv_sd                =   1.0283258714697E-01
(PID.TID 0000.0001) %MON forcing_fv_del2              =   3.2699921309956E-07
(PID.TID 0000.0001) %MON trAdv_CFL_u_max              =   7.7151630836930E-02
(PID.TID 0000.0001) %MON trAdv_CFL_v_max              =   1.1666927297361E-01
(PID.TID 0000.0001) %MON trAdv_CFL_w_max              =   5.3234990487546E-01
(PID.TID 0000.0001) %MON advcfl_uvel_max              =   7.7151630039863E-02
(PID.TID 0000.0001) %MON advcfl_vvel_max              =   1.1670025667534E-01
(PID.TID 0000.0001) %MON advcfl_wvel_max              =   5.2347740646087E-01
(PID.TID 0000.0001) %MON advcfl_W_hf_max              =   5.3234990487546E-01
(PID.TID 0000.0001) %MON pe_b_mean                    =  -1.8489801133888E-03
(PID.TID 0000.0001) %MON ke_max                       =   1.6944541662065E+00
(PID.TID 0000.0001) %MON ke_mean                      =   2.5976955771230E-03
(PID.TID 0000.0001) %MON ke_vol                       =   4.5818637279721E+16
(PID.TID 0000.0001) %MON vort_r_min                   =  -6.2421658636471E-04
(PID.TID 0000.0001) %MON vort_r_max                   =   5.5864149950927E-04
(PID.TID 0000.0001) %MON vort_a_mean                  =   8.2147628668949E-05
(PID.TID 0000.0001) %MON vort_a_sd                    =   1.0161190067852E-05
(PID.TID 0000.0001) %MON vort_p_mean                  =   8.4848850161579E-05
(PID.TID 0000.0001) %MON vort_p_sd                    =   3.4989496700247E-05
(PID.TID 0000.0001) %MON surfExpan_theta_mean         =  -5.3432763859754E-04
(PID.TID 0000.0001) %MON surfExpan_salt_mean          =  -1.2359796449064E-03
(PID.TID 0000.0001) // =======================================================
(PID.TID 0000.0001) // End MONITOR dynamic field statistics
(PID.TID 0000.0001) // =======================================================
(PID.TID 0000.0001) // =======================================================
(PID.TID 0000.0001) // Begin OBCS MONITOR field statistics
(PID.TID 0000.0001) // =======================================================
(PID.TID 0000.0001) %MON obc_N_vVel_max               =   6.9540705073497E-01
(PID.TID 0000.0001) %MON obc_N_vVel_min               =  -4.4755370140588E-01
(PID.TID 0000.0001) %MON obc_N_vVel_mean              =   1.3853306406087E-02
(PID.TID 0000.0001) %MON obc_N_vVel_sd                =   6.5027202037527E-02
(PID.TID 0000.0001) %MON obc_N_vVel_Int               =   1.9831125129041E+08
(PID.TID 0000.0001) %MON obc_S_vVel_max               =   1.5760619259238E+00
(PID.TID 0000.0001) %MON obc_S_vVel_min               =  -2.6151353978895E-01
(PID.TID 0000.0001) %MON obc_S_vVel_mean              =  -6.3978201849518E-03
(PID.TID 0000.0001) %MON obc_S_vVel_sd                =   3.6388548437067E-02
(PID.TID 0000.0001) %MON obc_S_vVel_Int               =  -1.9476819801588E+08
(PID.TID 0000.0001) %MON obc_N_theta_max              =   1.6389539512358E+01
(PID.TID 0000.0001) %MON obc_N_theta_min              =   1.8895914629663E+00
(PID.TID 0000.0001) %MON obc_N_theta_mean             =   5.1588697396382E+00
(PID.TID 0000.0001) %MON obc_N_theta_sd               =   3.4825945703428E+00
(PID.TID 0000.0001) %MON obc_S_theta_max              =   2.5543400077115E+01
(PID.TID 0000.0001) %MON obc_S_theta_min              =   1.4633015851955E+00
(PID.TID 0000.0001) %MON obc_S_theta_mean             =   5.4595457048427E+00
(PID.TID 0000.0001) %MON obc_S_theta_sd               =   5.3558789690521E+00
(PID.TID 0000.0001) %MON obc_N_salt_max               =   3.5910861522510E+01
(PID.TID 0000.0001) %MON obc_N_salt_min               =   3.3295096609545E+01
(PID.TID 0000.0001) %MON obc_N_salt_mean              =   3.5114559876550E+01
(PID.TID 0000.0001) %MON obc_N_salt_sd                =   3.0984754111561E-01
(PID.TID 0000.0001) %MON obc_S_salt_max               =   3.7318243364860E+01
(PID.TID 0000.0001) %MON obc_S_salt_min               =   3.4844695097122E+01
(PID.TID 0000.0001) %MON obc_S_salt_mean              =   3.5168371860085E+01
(PID.TID 0000.0001) %MON obc_S_salt_sd                =   4.5716584207385E-01
(PID.TID 0000.0001) // =======================================================
(PID.TID 0000.0001) // End OBCS MONITOR field statistics
(PID.TID 0000.0001) // =======================================================
 Computing Diagnostic #     23  ETAN         Counter:      15   Parms: SM      M1      
